/*---------------------------------------------------------------------------*\
| =========                 |                                                 |
| \\      /  F ield         | OpenFOAM: The Open Source CFD Toolbox           |
|  \\    /   O peration     | Version:  2.4.x                                 |
|   \\  /    A nd           | Web:      www.OpenFOAM.org                      |
|    \\/     M anipulation  |                                                 |
\*---------------------------------------------------------------------------*/
Build  : 2.4.x-277a7096b57d
Exec   : buoyantBoussinesqSimpleFoam
Date   : Oct 22 2015
Time   : 20:17:36
Host   : "tutami"
PID    : 12189
Case   : /home/ami/Documents/opetus/virtausLaskenta2015_opensource/cases/levitysVersio/cfMeshSerialVersion
nProcs : 1
sigFpe : Enabling floating point exception trapping (FOAM_SIGFPE).
fileModificationChecking : Monitoring run-time modified files using timeStampMaster
allowSystemOperations : Allowing user-supplied system call operations

// * * * * * * * * * * * * * * * * * * * * * * * * * * * * * * * * * * * * * //
Create time

Create mesh for time = 0


Reading g
Reading thermophysical properties

Reading field T

Reading field p_rgh

Reading field U

Reading/calculating face flux field phi

Selecting incompressible transport model Newtonian
Creating turbulence model

Selecting RAS turbulence model kOmegaSST
kOmegaSSTCoeffs
{
    label           "k-\u03C9 SST";
    fieldMaps
    {
        k               k;
        omega           omega;
        nut             nut;
    }
    alphaK1         0.85034;
    alphaK2         1;
    alphaOmega1     0.5;
    alphaOmega2     0.85616;
    gamma1          0.5532;
    gamma2          0.4403;
    beta1           0.075;
    beta2           0.0828;
    betaStar        0.09;
    a1              0.31;
    c1              10;
    Cmu             0.09;
    b1              1;
    F3              false;
}

Reading field alphat

Calculating field g.h

Creating finite volume options from "system/fvOptions"


SIMPLE: convergence criteria
    field U	 tolerance 0.001
    field k	 tolerance 0.001
    field epsilon	 tolerance 1e-05
    field omega	 tolerance 0.001
    field nuTilda	 tolerance 1e-05
    field T	 tolerance 0.001
    field p_rgh	 tolerance 0.001
    field p	 tolerance 1e-05


Starting time loop

Time = 1

smoothSolver:  Solving for Ux, Initial residual = 1, Final residual = 0.07680935232, No Iterations 3
smoothSolver:  Solving for Uy, Initial residual = 1, Final residual = 0.07017124189, No Iterations 3
smoothSolver:  Solving for Uz, Initial residual = 1, Final residual = 0.084768909, No Iterations 3
smoothSolver:  Solving for T, Initial residual = 0, Final residual = 0, No Iterations 1
GAMG:  Solving for p_rgh, Initial residual = 1, Final residual = 0.0085882829, No Iterations 8
time step continuity errors : sum local = 0.08253850954, global = -0.000211130926, cumulative = -0.000211130926
--> FOAM Warning : 
    From function gaussConvectionScheme
    in file finiteVolume/convectionSchemes/gaussConvectionScheme/gaussConvectionScheme.H at line 123
    Reading "/home/ami/Documents/opetus/virtausLaskenta2015_opensource/cases/levitysVersio/cfMeshSerialVersion/system/fvSchemes.divSchemes.div(phi,omega)" at line 47
    Unbounded 'Gauss' div scheme used in steady-state solver, use 'bounded Gauss' to ensure boundedness.
    To remove this warning switch off 'warnUnboundedGauss' in "/opt/OpenFOAM/OpenFOAM-2.4.x/etc/controlDict"
smoothSolver:  Solving for omega, Initial residual = 0.1937455977, Final residual = 0.009204949422, No Iterations 3
--> FOAM Warning : 
    From function gaussConvectionScheme
    in file finiteVolume/convectionSchemes/gaussConvectionScheme/gaussConvectionScheme.H at line 123
    Reading "/home/ami/Documents/opetus/virtausLaskenta2015_opensource/cases/levitysVersio/cfMeshSerialVersion/system/fvSchemes.divSchemes.div(phi,k)" at line 43
    Unbounded 'Gauss' div scheme used in steady-state solver, use 'bounded Gauss' to ensure boundedness.
    To remove this warning switch off 'warnUnboundedGauss' in "/opt/OpenFOAM/OpenFOAM-2.4.x/etc/controlDict"
smoothSolver:  Solving for k, Initial residual = 1, Final residual = 0.0673498498, No Iterations 3
ExecutionTime = 2.25 s  ClockTime = 3 s

Time = 2

smoothSolver:  Solving for Ux, Initial residual = 0.09046115955, Final residual = 0.007846430476, No Iterations 4
smoothSolver:  Solving for Uy, Initial residual = 0.1326314866, Final residual = 0.01309845187, No Iterations 4
smoothSolver:  Solving for Uz, Initial residual = 0.4327247878, Final residual = 0.03023976996, No Iterations 4
smoothSolver:  Solving for T, Initial residual = 1, Final residual = 0.04874611466, No Iterations 3
GAMG:  Solving for p_rgh, Initial residual = 0.2995394959, Final residual = 0.002596709841, No Iterations 22
time step continuity errors : sum local = 0.1299365545, global = -0.001958458695, cumulative = -0.002169589621
--> FOAM Warning : 
    From function gaussConvectionScheme
    in file finiteVolume/convectionSchemes/gaussConvectionScheme/gaussConvectionScheme.H at line 123
    Reading "/home/ami/Documents/opetus/virtausLaskenta2015_opensource/cases/levitysVersio/cfMeshSerialVersion/system/fvSchemes.divSchemes.div(phi,omega)" at line 47
    Unbounded 'Gauss' div scheme used in steady-state solver, use 'bounded Gauss' to ensure boundedness.
    To remove this warning switch off 'warnUnboundedGauss' in "/opt/OpenFOAM/OpenFOAM-2.4.x/etc/controlDict"
smoothSolver:  Solving for omega, Initial residual = 0.08098000458, Final residual = 0.005614421133, No Iterations 3
--> FOAM Warning : 
    From function gaussConvectionScheme
    in file finiteVolume/convectionSchemes/gaussConvectionScheme/gaussConvectionScheme.H at line 123
    Reading "/home/ami/Documents/opetus/virtausLaskenta2015_opensource/cases/levitysVersio/cfMeshSerialVersion/system/fvSchemes.divSchemes.div(phi,k)" at line 43
    Unbounded 'Gauss' div scheme used in steady-state solver, use 'bounded Gauss' to ensure boundedness.
    To remove this warning switch off 'warnUnboundedGauss' in "/opt/OpenFOAM/OpenFOAM-2.4.x/etc/controlDict"
smoothSolver:  Solving for k, Initial residual = 0.7617650691, Final residual = 0.07331744594, No Iterations 3
ExecutionTime = 3.76 s  ClockTime = 4 s

Time = 3

smoothSolver:  Solving for Ux, Initial residual = 0.4315964782, Final residual = 0.03305292434, No Iterations 5
smoothSolver:  Solving for Uy, Initial residual = 0.3715331151, Final residual = 0.03205513965, No Iterations 5
smoothSolver:  Solving for Uz, Initial residual = 0.422153972, Final residual = 0.03685172402, No Iterations 4
smoothSolver:  Solving for T, Initial residual = 0.2642019227, Final residual = 0.01191075769, No Iterations 3
GAMG:  Solving for p_rgh, Initial residual = 0.03889195503, Final residual = 0.0003312576525, No Iterations 9
time step continuity errors : sum local = 0.1902915363, global = -0.001760010165, cumulative = -0.003929599786
--> FOAM Warning : 
    From function gaussConvectionScheme
    in file finiteVolume/convectionSchemes/gaussConvectionScheme/gaussConvectionScheme.H at line 123
    Reading "/home/ami/Documents/opetus/virtausLaskenta2015_opensource/cases/levitysVersio/cfMeshSerialVersion/system/fvSchemes.divSchemes.div(phi,omega)" at line 47
    Unbounded 'Gauss' div scheme used in steady-state solver, use 'bounded Gauss' to ensure boundedness.
    To remove this warning switch off 'warnUnboundedGauss' in "/opt/OpenFOAM/OpenFOAM-2.4.x/etc/controlDict"
smoothSolver:  Solving for omega, Initial residual = 0.04361960378, Final residual = 0.002300892313, No Iterations 4
--> FOAM Warning : 
    From function gaussConvectionScheme
    in file finiteVolume/convectionSchemes/gaussConvectionScheme/gaussConvectionScheme.H at line 123
    Reading "/home/ami/Documents/opetus/virtausLaskenta2015_opensource/cases/levitysVersio/cfMeshSerialVersion/system/fvSchemes.divSchemes.div(phi,k)" at line 43
    Unbounded 'Gauss' div scheme used in steady-state solver, use 'bounded Gauss' to ensure boundedness.
    To remove this warning switch off 'warnUnboundedGauss' in "/opt/OpenFOAM/OpenFOAM-2.4.x/etc/controlDict"
smoothSolver:  Solving for k, Initial residual = 0.647838954, Final residual = 0.0392854739, No Iterations 4
ExecutionTime = 5.01 s  ClockTime = 5 s

Time = 4

smoothSolver:  Solving for Ux, Initial residual = 0.2305464095, Final residual = 0.01779494546, No Iterations 5
smoothSolver:  Solving for Uy, Initial residual = 0.1908020935, Final residual = 0.01686591992, No Iterations 5
smoothSolver:  Solving for Uz, Initial residual = 0.2145744218, Final residual = 0.01318632386, No Iterations 5
smoothSolver:  Solving for T, Initial residual = 0.1548318968, Final residual = 0.008295355324, No Iterations 2
GAMG:  Solving for p_rgh, Initial residual = 0.04103800735, Final residual = 0.0003461836496, No Iterations 16
time step continuity errors : sum local = 0.1642095473, global = 0.001667715201, cumulative = -0.002261884586
--> FOAM Warning : 
    From function gaussConvectionScheme
    in file finiteVolume/convectionSchemes/gaussConvectionScheme/gaussConvectionScheme.H at line 123
    Reading "/home/ami/Documents/opetus/virtausLaskenta2015_opensource/cases/levitysVersio/cfMeshSerialVersion/system/fvSchemes.divSchemes.div(phi,omega)" at line 47
    Unbounded 'Gauss' div scheme used in steady-state solver, use 'bounded Gauss' to ensure boundedness.
    To remove this warning switch off 'warnUnboundedGauss' in "/opt/OpenFOAM/OpenFOAM-2.4.x/etc/controlDict"
smoothSolver:  Solving for omega, Initial residual = 0.02528214658, Final residual = 0.001692194199, No Iterations 4
--> FOAM Warning : 
    From function gaussConvectionScheme
    in file finiteVolume/convectionSchemes/gaussConvectionScheme/gaussConvectionScheme.H at line 123
    Reading "/home/ami/Documents/opetus/virtausLaskenta2015_opensource/cases/levitysVersio/cfMeshSerialVersion/system/fvSchemes.divSchemes.div(phi,k)" at line 43
    Unbounded 'Gauss' div scheme used in steady-state solver, use 'bounded Gauss' to ensure boundedness.
    To remove this warning switch off 'warnUnboundedGauss' in "/opt/OpenFOAM/OpenFOAM-2.4.x/etc/controlDict"
smoothSolver:  Solving for k, Initial residual = 0.4661170085, Final residual = 0.03179558831, No Iterations 4
ExecutionTime = 6.41 s  ClockTime = 7 s

Time = 5

smoothSolver:  Solving for Ux, Initial residual = 0.03275031978, Final residual = 0.002042562073, No Iterations 5
smoothSolver:  Solving for Uy, Initial residual = 0.03771437397, Final residual = 0.002381639933, No Iterations 5
smoothSolver:  Solving for Uz, Initial residual = 0.2475151273, Final residual = 0.02356326082, No Iterations 4
smoothSolver:  Solving for T, Initial residual = 0.09872896239, Final residual = 0.005711915135, No Iterations 2
GAMG:  Solving for p_rgh, Initial residual = 0.3168848613, Final residual = 0.002454084781, No Iterations 17
time step continuity errors : sum local = 0.1355272188, global = -0.002347701369, cumulative = -0.004609585955
--> FOAM Warning : 
    From function gaussConvectionScheme
    in file finiteVolume/convectionSchemes/gaussConvectionScheme/gaussConvectionScheme.H at line 123
    Reading "/home/ami/Documents/opetus/virtausLaskenta2015_opensource/cases/levitysVersio/cfMeshSerialVersion/system/fvSchemes.divSchemes.div(phi,omega)" at line 47
    Unbounded 'Gauss' div scheme used in steady-state solver, use 'bounded Gauss' to ensure boundedness.
    To remove this warning switch off 'warnUnboundedGauss' in "/opt/OpenFOAM/OpenFOAM-2.4.x/etc/controlDict"
smoothSolver:  Solving for omega, Initial residual = 0.01967273708, Final residual = 0.001255222204, No Iterations 4
--> FOAM Warning : 
    From function gaussConvectionScheme
    in file finiteVolume/convectionSchemes/gaussConvectionScheme/gaussConvectionScheme.H at line 123
    Reading "/home/ami/Documents/opetus/virtausLaskenta2015_opensource/cases/levitysVersio/cfMeshSerialVersion/system/fvSchemes.divSchemes.div(phi,k)" at line 43
    Unbounded 'Gauss' div scheme used in steady-state solver, use 'bounded Gauss' to ensure boundedness.
    To remove this warning switch off 'warnUnboundedGauss' in "/opt/OpenFOAM/OpenFOAM-2.4.x/etc/controlDict"
smoothSolver:  Solving for k, Initial residual = 0.3853572347, Final residual = 0.02555610448, No Iterations 4
ExecutionTime = 7.82 s  ClockTime = 8 s

Time = 6

smoothSolver:  Solving for Ux, Initial residual = 0.2212592247, Final residual = 0.01694293325, No Iterations 5
smoothSolver:  Solving for Uy, Initial residual = 0.1764168847, Final residual = 0.01513294368, No Iterations 5
smoothSolver:  Solving for Uz, Initial residual = 0.252273769, Final residual = 0.02478185445, No Iterations 4
smoothSolver:  Solving for T, Initial residual = 0.07436795721, Final residual = 0.004315559134, No Iterations 2
GAMG:  Solving for p_rgh, Initial residual = 0.06713962845, Final residual = 0.000477944815, No Iterations 14
time step continuity errors : sum local = 0.1729845855, global = -0.001614546299, cumulative = -0.006224132254
--> FOAM Warning : 
    From function gaussConvectionScheme
    in file finiteVolume/convectionSchemes/gaussConvectionScheme/gaussConvectionScheme.H at line 123
    Reading "/home/ami/Documents/opetus/virtausLaskenta2015_opensource/cases/levitysVersio/cfMeshSerialVersion/system/fvSchemes.divSchemes.div(phi,omega)" at line 47
    Unbounded 'Gauss' div scheme used in steady-state solver, use 'bounded Gauss' to ensure boundedness.
    To remove this warning switch off 'warnUnboundedGauss' in "/opt/OpenFOAM/OpenFOAM-2.4.x/etc/controlDict"
smoothSolver:  Solving for omega, Initial residual = 0.01449285013, Final residual = 0.0009620447514, No Iterations 4
--> FOAM Warning : 
    From function gaussConvectionScheme
    in file finiteVolume/convectionSchemes/gaussConvectionScheme/gaussConvectionScheme.H at line 123
    Reading "/home/ami/Documents/opetus/virtausLaskenta2015_opensource/cases/levitysVersio/cfMeshSerialVersion/system/fvSchemes.divSchemes.div(phi,k)" at line 43
    Unbounded 'Gauss' div scheme used in steady-state solver, use 'bounded Gauss' to ensure boundedness.
    To remove this warning switch off 'warnUnboundedGauss' in "/opt/OpenFOAM/OpenFOAM-2.4.x/etc/controlDict"
smoothSolver:  Solving for k, Initial residual = 0.3948665194, Final residual = 0.02262606136, No Iterations 4
ExecutionTime = 9.19 s  ClockTime = 10 s

Time = 7

smoothSolver:  Solving for Ux, Initial residual = 0.1875802738, Final residual = 0.01443389329, No Iterations 5
smoothSolver:  Solving for Uy, Initial residual = 0.156309834, Final residual = 0.01354565366, No Iterations 5
smoothSolver:  Solving for Uz, Initial residual = 0.1985235179, Final residual = 0.01305764089, No Iterations 5
smoothSolver:  Solving for T, Initial residual = 0.06097545929, Final residual = 0.003780977324, No Iterations 2
GAMG:  Solving for p_rgh, Initial residual = 0.07824305668, Final residual = 0.0007303164525, No Iterations 17
time step continuity errors : sum local = 0.1886990781, global = 0.003623219542, cumulative = -0.002600912712
--> FOAM Warning : 
    From function gaussConvectionScheme
    in file finiteVolume/convectionSchemes/gaussConvectionScheme/gaussConvectionScheme.H at line 123
    Reading "/home/ami/Documents/opetus/virtausLaskenta2015_opensource/cases/levitysVersio/cfMeshSerialVersion/system/fvSchemes.divSchemes.div(phi,omega)" at line 47
    Unbounded 'Gauss' div scheme used in steady-state solver, use 'bounded Gauss' to ensure boundedness.
    To remove this warning switch off 'warnUnboundedGauss' in "/opt/OpenFOAM/OpenFOAM-2.4.x/etc/controlDict"
smoothSolver:  Solving for omega, Initial residual = 0.01232859815, Final residual = 0.0007507334786, No Iterations 4
--> FOAM Warning : 
    From function gaussConvectionScheme
    in file finiteVolume/convectionSchemes/gaussConvectionScheme/gaussConvectionScheme.H at line 123
    Reading "/home/ami/Documents/opetus/virtausLaskenta2015_opensource/cases/levitysVersio/cfMeshSerialVersion/system/fvSchemes.divSchemes.div(phi,k)" at line 43
    Unbounded 'Gauss' div scheme used in steady-state solver, use 'bounded Gauss' to ensure boundedness.
    To remove this warning switch off 'warnUnboundedGauss' in "/opt/OpenFOAM/OpenFOAM-2.4.x/etc/controlDict"
smoothSolver:  Solving for k, Initial residual = 0.2803206333, Final residual = 0.01926512057, No Iterations 4
ExecutionTime = 10.59 s  ClockTime = 11 s

Time = 8

smoothSolver:  Solving for Ux, Initial residual = 0.04768947615, Final residual = 0.003425278186, No Iterations 5
smoothSolver:  Solving for Uy, Initial residual = 0.0532561859, Final residual = 0.004053376225, No Iterations 5
smoothSolver:  Solving for Uz, Initial residual = 0.2264224665, Final residual = 0.01453375478, No Iterations 5
smoothSolver:  Solving for T, Initial residual = 0.05229226709, Final residual = 0.00356611904, No Iterations 2
GAMG:  Solving for p_rgh, Initial residual = 0.1853285299, Final residual = 0.001406242957, No Iterations 16
time step continuity errors : sum local = 0.1039811759, global = -0.0008571519204, cumulative = -0.003458064632
--> FOAM Warning : 
    From function gaussConvectionScheme
    in file finiteVolume/convectionSchemes/gaussConvectionScheme/gaussConvectionScheme.H at line 123
    Reading "/home/ami/Documents/opetus/virtausLaskenta2015_opensource/cases/levitysVersio/cfMeshSerialVersion/system/fvSchemes.divSchemes.div(phi,omega)" at line 47
    Unbounded 'Gauss' div scheme used in steady-state solver, use 'bounded Gauss' to ensure boundedness.
    To remove this warning switch off 'warnUnboundedGauss' in "/opt/OpenFOAM/OpenFOAM-2.4.x/etc/controlDict"
smoothSolver:  Solving for omega, Initial residual = 0.008518893752, Final residual = 0.0006247231276, No Iterations 4
--> FOAM Warning : 
    From function gaussConvectionScheme
    in file finiteVolume/convectionSchemes/gaussConvectionScheme/gaussConvectionScheme.H at line 123
    Reading "/home/ami/Documents/opetus/virtausLaskenta2015_opensource/cases/levitysVersio/cfMeshSerialVersion/system/fvSchemes.divSchemes.div(phi,k)" at line 43
    Unbounded 'Gauss' div scheme used in steady-state solver, use 'bounded Gauss' to ensure boundedness.
    To remove this warning switch off 'warnUnboundedGauss' in "/opt/OpenFOAM/OpenFOAM-2.4.x/etc/controlDict"
smoothSolver:  Solving for k, Initial residual = 0.1927436434, Final residual = 0.01613765048, No Iterations 4
ExecutionTime = 11.98 s  ClockTime = 12 s

Time = 9

smoothSolver:  Solving for Ux, Initial residual = 0.1282775319, Final residual = 0.009746122958, No Iterations 5
smoothSolver:  Solving for Uy, Initial residual = 0.1181066068, Final residual = 0.01002987973, No Iterations 5
smoothSolver:  Solving for Uz, Initial residual = 0.2042779399, Final residual = 0.01280391314, No Iterations 5
smoothSolver:  Solving for T, Initial residual = 0.04542391191, Final residual = 0.003179322994, No Iterations 2
GAMG:  Solving for p_rgh, Initial residual = 0.07156414032, Final residual = 0.0004891862649, No Iterations 14
time step continuity errors : sum local = 0.10852779, global = 0.0007308175378, cumulative = -0.002727247094
--> FOAM Warning : 
    From function gaussConvectionScheme
    in file finiteVolume/convectionSchemes/gaussConvectionScheme/gaussConvectionScheme.H at line 123
    Reading "/home/ami/Documents/opetus/virtausLaskenta2015_opensource/cases/levitysVersio/cfMeshSerialVersion/system/fvSchemes.divSchemes.div(phi,omega)" at line 47
    Unbounded 'Gauss' div scheme used in steady-state solver, use 'bounded Gauss' to ensure boundedness.
    To remove this warning switch off 'warnUnboundedGauss' in "/opt/OpenFOAM/OpenFOAM-2.4.x/etc/controlDict"
smoothSolver:  Solving for omega, Initial residual = 0.006386619709, Final residual = 0.0005057097389, No Iterations 4
--> FOAM Warning : 
    From function gaussConvectionScheme
    in file finiteVolume/convectionSchemes/gaussConvectionScheme/gaussConvectionScheme.H at line 123
    Reading "/home/ami/Documents/opetus/virtausLaskenta2015_opensource/cases/levitysVersio/cfMeshSerialVersion/system/fvSchemes.divSchemes.div(phi,k)" at line 43
    Unbounded 'Gauss' div scheme used in steady-state solver, use 'bounded Gauss' to ensure boundedness.
    To remove this warning switch off 'warnUnboundedGauss' in "/opt/OpenFOAM/OpenFOAM-2.4.x/etc/controlDict"
smoothSolver:  Solving for k, Initial residual = 0.1729205207, Final residual = 0.01355161242, No Iterations 4
ExecutionTime = 13.36 s  ClockTime = 14 s

Time = 10

smoothSolver:  Solving for Ux, Initial residual = 0.06995100791, Final residual = 0.005310154295, No Iterations 5
smoothSolver:  Solving for Uy, Initial residual = 0.0635883232, Final residual = 0.00544102057, No Iterations 5
smoothSolver:  Solving for Uz, Initial residual = 0.1406687711, Final residual = 0.008895036852, No Iterations 5
smoothSolver:  Solving for T, Initial residual = 0.03970983423, Final residual = 0.002798137678, No Iterations 2
GAMG:  Solving for p_rgh, Initial residual = 0.08743462969, Final residual = 0.0008288726278, No Iterations 16
time step continuity errors : sum local = 0.1202144634, global = 0.0009906497226, cumulative = -0.001736597372
--> FOAM Warning : 
    From function gaussConvectionScheme
    in file finiteVolume/convectionSchemes/gaussConvectionScheme/gaussConvectionScheme.H at line 123
    Reading "/home/ami/Documents/opetus/virtausLaskenta2015_opensource/cases/levitysVersio/cfMeshSerialVersion/system/fvSchemes.divSchemes.div(phi,omega)" at line 47
    Unbounded 'Gauss' div scheme used in steady-state solver, use 'bounded Gauss' to ensure boundedness.
    To remove this warning switch off 'warnUnboundedGauss' in "/opt/OpenFOAM/OpenFOAM-2.4.x/etc/controlDict"
smoothSolver:  Solving for omega, Initial residual = 0.006255915567, Final residual = 0.0004147201847, No Iterations 4
--> FOAM Warning : 
    From function gaussConvectionScheme
    in file finiteVolume/convectionSchemes/gaussConvectionScheme/gaussConvectionScheme.H at line 123
    Reading "/home/ami/Documents/opetus/virtausLaskenta2015_opensource/cases/levitysVersio/cfMeshSerialVersion/system/fvSchemes.divSchemes.div(phi,k)" at line 43
    Unbounded 'Gauss' div scheme used in steady-state solver, use 'bounded Gauss' to ensure boundedness.
    To remove this warning switch off 'warnUnboundedGauss' in "/opt/OpenFOAM/OpenFOAM-2.4.x/etc/controlDict"
smoothSolver:  Solving for k, Initial residual = 0.1438893516, Final residual = 0.01158890949, No Iterations 4
ExecutionTime = 14.75 s  ClockTime = 15 s

Time = 11

smoothSolver:  Solving for Ux, Initial residual = 0.0295821456, Final residual = 0.002164559441, No Iterations 5
smoothSolver:  Solving for Uy, Initial residual = 0.0321244682, Final residual = 0.002418665511, No Iterations 5
smoothSolver:  Solving for Uz, Initial residual = 0.143738631, Final residual = 0.008809965349, No Iterations 5
smoothSolver:  Solving for T, Initial residual = 0.03537297156, Final residual = 0.002510147044, No Iterations 2
GAMG:  Solving for p_rgh, Initial residual = 0.1813331876, Final residual = 0.001605102841, No Iterations 16
time step continuity errors : sum local = 0.09133112864, global = 0.0006081075868, cumulative = -0.001128489785
--> FOAM Warning : 
    From function gaussConvectionScheme
    in file finiteVolume/convectionSchemes/gaussConvectionScheme/gaussConvectionScheme.H at line 123
    Reading "/home/ami/Documents/opetus/virtausLaskenta2015_opensource/cases/levitysVersio/cfMeshSerialVersion/system/fvSchemes.divSchemes.div(phi,omega)" at line 47
    Unbounded 'Gauss' div scheme used in steady-state solver, use 'bounded Gauss' to ensure boundedness.
    To remove this warning switch off 'warnUnboundedGauss' in "/opt/OpenFOAM/OpenFOAM-2.4.x/etc/controlDict"
smoothSolver:  Solving for omega, Initial residual = 0.005822831595, Final residual = 0.0003534318445, No Iterations 4
--> FOAM Warning : 
    From function gaussConvectionScheme
    in file finiteVolume/convectionSchemes/gaussConvectionScheme/gaussConvectionScheme.H at line 123
    Reading "/home/ami/Documents/opetus/virtausLaskenta2015_opensource/cases/levitysVersio/cfMeshSerialVersion/system/fvSchemes.divSchemes.div(phi,k)" at line 43
    Unbounded 'Gauss' div scheme used in steady-state solver, use 'bounded Gauss' to ensure boundedness.
    To remove this warning switch off 'warnUnboundedGauss' in "/opt/OpenFOAM/OpenFOAM-2.4.x/etc/controlDict"
smoothSolver:  Solving for k, Initial residual = 0.1245342765, Final residual = 0.01003305965, No Iterations 4
ExecutionTime = 16.15 s  ClockTime = 17 s

Time = 12

smoothSolver:  Solving for Ux, Initial residual = 0.07288660037, Final residual = 0.005555922449, No Iterations 5
smoothSolver:  Solving for Uy, Initial residual = 0.0646492894, Final residual = 0.005430944359, No Iterations 5
smoothSolver:  Solving for Uz, Initial residual = 0.1236440029, Final residual = 0.007685552418, No Iterations 5
smoothSolver:  Solving for T, Initial residual = 0.0322925965, Final residual = 0.002325086516, No Iterations 2
GAMG:  Solving for p_rgh, Initial residual = 0.09083288946, Final residual = 0.0008758265311, No Iterations 15
time step continuity errors : sum local = 0.1126366578, global = 0.003051257004, cumulative = 0.001922767219
--> FOAM Warning : 
    From function gaussConvectionScheme
    in file finiteVolume/convectionSchemes/gaussConvectionScheme/gaussConvectionScheme.H at line 123
    Reading "/home/ami/Documents/opetus/virtausLaskenta2015_opensource/cases/levitysVersio/cfMeshSerialVersion/system/fvSchemes.divSchemes.div(phi,omega)" at line 47
    Unbounded 'Gauss' div scheme used in steady-state solver, use 'bounded Gauss' to ensure boundedness.
    To remove this warning switch off 'warnUnboundedGauss' in "/opt/OpenFOAM/OpenFOAM-2.4.x/etc/controlDict"
smoothSolver:  Solving for omega, Initial residual = 0.004722424132, Final residual = 0.0002959924495, No Iterations 4
--> FOAM Warning : 
    From function gaussConvectionScheme
    in file finiteVolume/convectionSchemes/gaussConvectionScheme/gaussConvectionScheme.H at line 123
    Reading "/home/ami/Documents/opetus/virtausLaskenta2015_opensource/cases/levitysVersio/cfMeshSerialVersion/system/fvSchemes.divSchemes.div(phi,k)" at line 43
    Unbounded 'Gauss' div scheme used in steady-state solver, use 'bounded Gauss' to ensure boundedness.
    To remove this warning switch off 'warnUnboundedGauss' in "/opt/OpenFOAM/OpenFOAM-2.4.x/etc/controlDict"
smoothSolver:  Solving for k, Initial residual = 0.1146308733, Final residual = 0.008525239844, No Iterations 4
ExecutionTime = 17.53 s  ClockTime = 18 s

Time = 13

smoothSolver:  Solving for Ux, Initial residual = 0.04022745613, Final residual = 0.003051448538, No Iterations 5
smoothSolver:  Solving for Uy, Initial residual = 0.03902573689, Final residual = 0.003315676452, No Iterations 5
smoothSolver:  Solving for Uz, Initial residual = 0.09554192463, Final residual = 0.00631152304, No Iterations 5
smoothSolver:  Solving for T, Initial residual = 0.02950884895, Final residual = 0.002122998792, No Iterations 2
GAMG:  Solving for p_rgh, Initial residual = 0.1310443652, Final residual = 0.001206199584, No Iterations 16
time step continuity errors : sum local = 0.08704546686, global = -0.0007079927219, cumulative = 0.001214774497
--> FOAM Warning : 
    From function gaussConvectionScheme
    in file finiteVolume/convectionSchemes/gaussConvectionScheme/gaussConvectionScheme.H at line 123
    Reading "/home/ami/Documents/opetus/virtausLaskenta2015_opensource/cases/levitysVersio/cfMeshSerialVersion/system/fvSchemes.divSchemes.div(phi,omega)" at line 47
    Unbounded 'Gauss' div scheme used in steady-state solver, use 'bounded Gauss' to ensure boundedness.
    To remove this warning switch off 'warnUnboundedGauss' in "/opt/OpenFOAM/OpenFOAM-2.4.x/etc/controlDict"
smoothSolver:  Solving for omega, Initial residual = 0.004090407943, Final residual = 0.0002515807809, No Iterations 4
--> FOAM Warning : 
    From function gaussConvectionScheme
    in file finiteVolume/convectionSchemes/gaussConvectionScheme/gaussConvectionScheme.H at line 123
    Reading "/home/ami/Documents/opetus/virtausLaskenta2015_opensource/cases/levitysVersio/cfMeshSerialVersion/system/fvSchemes.divSchemes.div(phi,k)" at line 43
    Unbounded 'Gauss' div scheme used in steady-state solver, use 'bounded Gauss' to ensure boundedness.
    To remove this warning switch off 'warnUnboundedGauss' in "/opt/OpenFOAM/OpenFOAM-2.4.x/etc/controlDict"
smoothSolver:  Solving for k, Initial residual = 0.08638190121, Final residual = 0.007188604939, No Iterations 4
ExecutionTime = 18.96 s  ClockTime = 20 s

Time = 14

smoothSolver:  Solving for Ux, Initial residual = 0.02482309808, Final residual = 0.001822223729, No Iterations 5
smoothSolver:  Solving for Uy, Initial residual = 0.02652944442, Final residual = 0.002104751705, No Iterations 5
smoothSolver:  Solving for Uz, Initial residual = 0.09942282661, Final residual = 0.00674331938, No Iterations 5
smoothSolver:  Solving for T, Initial residual = 0.02698422807, Final residual = 0.001955635646, No Iterations 2
GAMG:  Solving for p_rgh, Initial residual = 0.1575987622, Final residual = 0.001287006219, No Iterations 15
time step continuity errors : sum local = 0.06733187002, global = 0.0002820209482, cumulative = 0.001496795445
--> FOAM Warning : 
    From function gaussConvectionScheme
    in file finiteVolume/convectionSchemes/gaussConvectionScheme/gaussConvectionScheme.H at line 123
    Reading "/home/ami/Documents/opetus/virtausLaskenta2015_opensource/cases/levitysVersio/cfMeshSerialVersion/system/fvSchemes.divSchemes.div(phi,omega)" at line 47
    Unbounded 'Gauss' div scheme used in steady-state solver, use 'bounded Gauss' to ensure boundedness.
    To remove this warning switch off 'warnUnboundedGauss' in "/opt/OpenFOAM/OpenFOAM-2.4.x/etc/controlDict"
smoothSolver:  Solving for omega, Initial residual = 0.002923669001, Final residual = 0.000215775666, No Iterations 4
--> FOAM Warning : 
    From function gaussConvectionScheme
    in file finiteVolume/convectionSchemes/gaussConvectionScheme/gaussConvectionScheme.H at line 123
    Reading "/home/ami/Documents/opetus/virtausLaskenta2015_opensource/cases/levitysVersio/cfMeshSerialVersion/system/fvSchemes.divSchemes.div(phi,k)" at line 43
    Unbounded 'Gauss' div scheme used in steady-state solver, use 'bounded Gauss' to ensure boundedness.
    To remove this warning switch off 'warnUnboundedGauss' in "/opt/OpenFOAM/OpenFOAM-2.4.x/etc/controlDict"
smoothSolver:  Solving for k, Initial residual = 0.07088979034, Final residual = 0.006112672561, No Iterations 4
ExecutionTime = 20.38 s  ClockTime = 21 s

Time = 15

smoothSolver:  Solving for Ux, Initial residual = 0.03846646719, Final residual = 0.002889218726, No Iterations 5
smoothSolver:  Solving for Uy, Initial residual = 0.03520229182, Final residual = 0.002908657101, No Iterations 5
smoothSolver:  Solving for Uz, Initial residual = 0.09003665219, Final residual = 0.006072154376, No Iterations 5
smoothSolver:  Solving for T, Initial residual = 0.02470192175, Final residual = 0.001793990559, No Iterations 2
GAMG:  Solving for p_rgh, Initial residual = 0.1024730434, Final residual = 0.0008585955423, No Iterations 14
time step continuity errors : sum local = 0.07350578569, global = 0.002453367424, cumulative = 0.003950162869
--> FOAM Warning : 
    From function gaussConvectionScheme
    in file finiteVolume/convectionSchemes/gaussConvectionScheme/gaussConvectionScheme.H at line 123
    Reading "/home/ami/Documents/opetus/virtausLaskenta2015_opensource/cases/levitysVersio/cfMeshSerialVersion/system/fvSchemes.divSchemes.div(phi,omega)" at line 47
    Unbounded 'Gauss' div scheme used in steady-state solver, use 'bounded Gauss' to ensure boundedness.
    To remove this warning switch off 'warnUnboundedGauss' in "/opt/OpenFOAM/OpenFOAM-2.4.x/etc/controlDict"
smoothSolver:  Solving for omega, Initial residual = 0.002429814331, Final residual = 0.0001833430142, No Iterations 4
--> FOAM Warning : 
    From function gaussConvectionScheme
    in file finiteVolume/convectionSchemes/gaussConvectionScheme/gaussConvectionScheme.H at line 123
    Reading "/home/ami/Documents/opetus/virtausLaskenta2015_opensource/cases/levitysVersio/cfMeshSerialVersion/system/fvSchemes.divSchemes.div(phi,k)" at line 43
    Unbounded 'Gauss' div scheme used in steady-state solver, use 'bounded Gauss' to ensure boundedness.
    To remove this warning switch off 'warnUnboundedGauss' in "/opt/OpenFOAM/OpenFOAM-2.4.x/etc/controlDict"
smoothSolver:  Solving for k, Initial residual = 0.06539170429, Final residual = 0.005255900153, No Iterations 4
ExecutionTime = 21.76 s  ClockTime = 22 s

Time = 16

smoothSolver:  Solving for Ux, Initial residual = 0.01767045831, Final residual = 0.001299787727, No Iterations 5
smoothSolver:  Solving for Uy, Initial residual = 0.01969555688, Final residual = 0.001569672102, No Iterations 5
smoothSolver:  Solving for Uz, Initial residual = 0.07692047195, Final residual = 0.005156320934, No Iterations 5
smoothSolver:  Solving for T, Initial residual = 0.02316411247, Final residual = 0.001673605066, No Iterations 2
GAMG:  Solving for p_rgh, Initial residual = 0.1456932729, Final residual = 0.001023676047, No Iterations 16
time step continuity errors : sum local = 0.04958524185, global = 0.0004107987143, cumulative = 0.004360961583
--> FOAM Warning : 
    From function gaussConvectionScheme
    in file finiteVolume/convectionSchemes/gaussConvectionScheme/gaussConvectionScheme.H at line 123
    Reading "/home/ami/Documents/opetus/virtausLaskenta2015_opensource/cases/levitysVersio/cfMeshSerialVersion/system/fvSchemes.divSchemes.div(phi,omega)" at line 47
    Unbounded 'Gauss' div scheme used in steady-state solver, use 'bounded Gauss' to ensure boundedness.
    To remove this warning switch off 'warnUnboundedGauss' in "/opt/OpenFOAM/OpenFOAM-2.4.x/etc/controlDict"
smoothSolver:  Solving for omega, Initial residual = 0.002364765803, Final residual = 0.0001603163161, No Iterations 4
--> FOAM Warning : 
    From function gaussConvectionScheme
    in file finiteVolume/convectionSchemes/gaussConvectionScheme/gaussConvectionScheme.H at line 123
    Reading "/home/ami/Documents/opetus/virtausLaskenta2015_opensource/cases/levitysVersio/cfMeshSerialVersion/system/fvSchemes.divSchemes.div(phi,k)" at line 43
    Unbounded 'Gauss' div scheme used in steady-state solver, use 'bounded Gauss' to ensure boundedness.
    To remove this warning switch off 'warnUnboundedGauss' in "/opt/OpenFOAM/OpenFOAM-2.4.x/etc/controlDict"
smoothSolver:  Solving for k, Initial residual = 0.05609812908, Final residual = 0.004679234346, No Iterations 4
ExecutionTime = 23.18 s  ClockTime = 24 s

Time = 17

smoothSolver:  Solving for Ux, Initial residual = 0.01609992946, Final residual = 0.001172926284, No Iterations 5
smoothSolver:  Solving for Uy, Initial residual = 0.01647282248, Final residual = 0.001249269434, No Iterations 5
smoothSolver:  Solving for Uz, Initial residual = 0.07556351595, Final residual = 0.005077786389, No Iterations 5
smoothSolver:  Solving for T, Initial residual = 0.02199730381, Final residual = 0.001609751711, No Iterations 2
GAMG:  Solving for p_rgh, Initial residual = 0.1979558108, Final residual = 0.001544105518, No Iterations 13
time step continuity errors : sum local = 0.049196363, global = -0.0002601033144, cumulative = 0.004100858269
--> FOAM Warning : 
    From function gaussConvectionScheme
    in file finiteVolume/convectionSchemes/gaussConvectionScheme/gaussConvectionScheme.H at line 123
    Reading "/home/ami/Documents/opetus/virtausLaskenta2015_opensource/cases/levitysVersio/cfMeshSerialVersion/system/fvSchemes.divSchemes.div(phi,omega)" at line 47
    Unbounded 'Gauss' div scheme used in steady-state solver, use 'bounded Gauss' to ensure boundedness.
    To remove this warning switch off 'warnUnboundedGauss' in "/opt/OpenFOAM/OpenFOAM-2.4.x/etc/controlDict"
smoothSolver:  Solving for omega, Initial residual = 0.002063508275, Final residual = 0.0001436579349, No Iterations 4
--> FOAM Warning : 
    From function gaussConvectionScheme
    in file finiteVolume/convectionSchemes/gaussConvectionScheme/gaussConvectionScheme.H at line 123
    Reading "/home/ami/Documents/opetus/virtausLaskenta2015_opensource/cases/levitysVersio/cfMeshSerialVersion/system/fvSchemes.divSchemes.div(phi,k)" at line 43
    Unbounded 'Gauss' div scheme used in steady-state solver, use 'bounded Gauss' to ensure boundedness.
    To remove this warning switch off 'warnUnboundedGauss' in "/opt/OpenFOAM/OpenFOAM-2.4.x/etc/controlDict"
smoothSolver:  Solving for k, Initial residual = 0.0509509151, Final residual = 0.00427815115, No Iterations 4
ExecutionTime = 24.52 s  ClockTime = 25 s

Time = 18

smoothSolver:  Solving for Ux, Initial residual = 0.02290647145, Final residual = 0.001708784439, No Iterations 5
smoothSolver:  Solving for Uy, Initial residual = 0.02111180355, Final residual = 0.00172871219, No Iterations 5
smoothSolver:  Solving for Uz, Initial residual = 0.06801566779, Final residual = 0.004681712837, No Iterations 5
smoothSolver:  Solving for T, Initial residual = 0.02084632492, Final residual = 0.001583010318, No Iterations 2
GAMG:  Solving for p_rgh, Initial residual = 0.1370627807, Final residual = 0.00128307233, No Iterations 13
time step continuity errors : sum local = 0.05947239008, global = 0.0002500038789, cumulative = 0.004350862148
--> FOAM Warning : 
    From function gaussConvectionScheme
    in file finiteVolume/convectionSchemes/gaussConvectionScheme/gaussConvectionScheme.H at line 123
    Reading "/home/ami/Documents/opetus/virtausLaskenta2015_opensource/cases/levitysVersio/cfMeshSerialVersion/system/fvSchemes.divSchemes.div(phi,omega)" at line 47
    Unbounded 'Gauss' div scheme used in steady-state solver, use 'bounded Gauss' to ensure boundedness.
    To remove this warning switch off 'warnUnboundedGauss' in "/opt/OpenFOAM/OpenFOAM-2.4.x/etc/controlDict"
smoothSolver:  Solving for omega, Initial residual = 0.001813439311, Final residual = 0.000127222806, No Iterations 4
--> FOAM Warning : 
    From function gaussConvectionScheme
    in file finiteVolume/convectionSchemes/gaussConvectionScheme/gaussConvectionScheme.H at line 123
    Reading "/home/ami/Documents/opetus/virtausLaskenta2015_opensource/cases/levitysVersio/cfMeshSerialVersion/system/fvSchemes.divSchemes.div(phi,k)" at line 43
    Unbounded 'Gauss' div scheme used in steady-state solver, use 'bounded Gauss' to ensure boundedness.
    To remove this warning switch off 'warnUnboundedGauss' in "/opt/OpenFOAM/OpenFOAM-2.4.x/etc/controlDict"
smoothSolver:  Solving for k, Initial residual = 0.04760818148, Final residual = 0.003901973396, No Iterations 4
ExecutionTime = 25.89 s  ClockTime = 27 s

Time = 19

smoothSolver:  Solving for Ux, Initial residual = 0.01156673415, Final residual = 0.000839804359, No Iterations 5
smoothSolver:  Solving for Uy, Initial residual = 0.01343674067, Final residual = 0.001094343215, No Iterations 5
smoothSolver:  Solving for Uz, Initial residual = 0.06097361186, Final residual = 0.004236057253, No Iterations 5
smoothSolver:  Solving for T, Initial residual = 0.01981616332, Final residual = 0.001518504718, No Iterations 2
GAMG:  Solving for p_rgh, Initial residual = 0.2381472516, Final residual = 0.00158026067, No Iterations 16
time step continuity errors : sum local = 0.03515140636, global = -0.000258647521, cumulative = 0.004092214627
--> FOAM Warning : 
    From function gaussConvectionScheme
    in file finiteVolume/convectionSchemes/gaussConvectionScheme/gaussConvectionScheme.H at line 123
    Reading "/home/ami/Documents/opetus/virtausLaskenta2015_opensource/cases/levitysVersio/cfMeshSerialVersion/system/fvSchemes.divSchemes.div(phi,omega)" at line 47
    Unbounded 'Gauss' div scheme used in steady-state solver, use 'bounded Gauss' to ensure boundedness.
    To remove this warning switch off 'warnUnboundedGauss' in "/opt/OpenFOAM/OpenFOAM-2.4.x/etc/controlDict"
smoothSolver:  Solving for omega, Initial residual = 0.001579458714, Final residual = 0.0001128651165, No Iterations 4
--> FOAM Warning : 
    From function gaussConvectionScheme
    in file finiteVolume/convectionSchemes/gaussConvectionScheme/gaussConvectionScheme.H at line 123
    Reading "/home/ami/Documents/opetus/virtausLaskenta2015_opensource/cases/levitysVersio/cfMeshSerialVersion/system/fvSchemes.divSchemes.div(phi,k)" at line 43
    Unbounded 'Gauss' div scheme used in steady-state solver, use 'bounded Gauss' to ensure boundedness.
    To remove this warning switch off 'warnUnboundedGauss' in "/opt/OpenFOAM/OpenFOAM-2.4.x/etc/controlDict"
smoothSolver:  Solving for k, Initial residual = 0.04120461011, Final residual = 0.003595668325, No Iterations 4
ExecutionTime = 27.27 s  ClockTime = 28 s

Time = 20

smoothSolver:  Solving for Ux, Initial residual = 0.01239530856, Final residual = 0.0008829660172, No Iterations 5
smoothSolver:  Solving for Uy, Initial residual = 0.0140082955, Final residual = 0.00107522237, No Iterations 5
smoothSolver:  Solving for Uz, Initial residual = 0.05849072572, Final residual = 0.004034483601, No Iterations 5
smoothSolver:  Solving for T, Initial residual = 0.01885918278, Final residual = 0.001441286553, No Iterations 2
GAMG:  Solving for p_rgh, Initial residual = 0.1637518603, Final residual = 0.001503126318, No Iterations 11
time step continuity errors : sum local = 0.04643879272, global = -0.00178113225, cumulative = 0.002311082377
--> FOAM Warning : 
    From function gaussConvectionScheme
    in file finiteVolume/convectionSchemes/gaussConvectionScheme/gaussConvectionScheme.H at line 123
    Reading "/home/ami/Documents/opetus/virtausLaskenta2015_opensource/cases/levitysVersio/cfMeshSerialVersion/system/fvSchemes.divSchemes.div(phi,omega)" at line 47
    Unbounded 'Gauss' div scheme used in steady-state solver, use 'bounded Gauss' to ensure boundedness.
    To remove this warning switch off 'warnUnboundedGauss' in "/opt/OpenFOAM/OpenFOAM-2.4.x/etc/controlDict"
smoothSolver:  Solving for omega, Initial residual = 0.001256146133, Final residual = 0.0001010342786, No Iterations 4
--> FOAM Warning : 
    From function gaussConvectionScheme
    in file finiteVolume/convectionSchemes/gaussConvectionScheme/gaussConvectionScheme.H at line 123
    Reading "/home/ami/Documents/opetus/virtausLaskenta2015_opensource/cases/levitysVersio/cfMeshSerialVersion/system/fvSchemes.divSchemes.div(phi,k)" at line 43
    Unbounded 'Gauss' div scheme used in steady-state solver, use 'bounded Gauss' to ensure boundedness.
    To remove this warning switch off 'warnUnboundedGauss' in "/opt/OpenFOAM/OpenFOAM-2.4.x/etc/controlDict"
smoothSolver:  Solving for k, Initial residual = 0.03868930661, Final residual = 0.003359693089, No Iterations 4
ExecutionTime = 28.55 s  ClockTime = 29 s

Time = 21

smoothSolver:  Solving for Ux, Initial residual = 0.01385406927, Final residual = 0.001011321388, No Iterations 5
smoothSolver:  Solving for Uy, Initial residual = 0.01469755792, Final residual = 0.001144074844, No Iterations 5
smoothSolver:  Solving for Uz, Initial residual = 0.05515113514, Final residual = 0.003802085776, No Iterations 5
smoothSolver:  Solving for T, Initial residual = 0.01790593823, Final residual = 0.001368808453, No Iterations 2
GAMG:  Solving for p_rgh, Initial residual = 0.1363344571, Final residual = 0.001294999508, No Iterations 12
time step continuity errors : sum local = 0.04734951881, global = 0.002938527764, cumulative = 0.005249610141
--> FOAM Warning : 
    From function gaussConvectionScheme
    in file finiteVolume/convectionSchemes/gaussConvectionScheme/gaussConvectionScheme.H at line 123
    Reading "/home/ami/Documents/opetus/virtausLaskenta2015_opensource/cases/levitysVersio/cfMeshSerialVersion/system/fvSchemes.divSchemes.div(phi,omega)" at line 47
    Unbounded 'Gauss' div scheme used in steady-state solver, use 'bounded Gauss' to ensure boundedness.
    To remove this warning switch off 'warnUnboundedGauss' in "/opt/OpenFOAM/OpenFOAM-2.4.x/etc/controlDict"
smoothSolver:  Solving for omega, Initial residual = 0.001193803515, Final residual = 9.135086337e-05, No Iterations 4
--> FOAM Warning : 
    From function gaussConvectionScheme
    in file finiteVolume/convectionSchemes/gaussConvectionScheme/gaussConvectionScheme.H at line 123
    Reading "/home/ami/Documents/opetus/virtausLaskenta2015_opensource/cases/levitysVersio/cfMeshSerialVersion/system/fvSchemes.divSchemes.div(phi,k)" at line 43
    Unbounded 'Gauss' div scheme used in steady-state solver, use 'bounded Gauss' to ensure boundedness.
    To remove this warning switch off 'warnUnboundedGauss' in "/opt/OpenFOAM/OpenFOAM-2.4.x/etc/controlDict"
smoothSolver:  Solving for k, Initial residual = 0.03717157704, Final residual = 0.003168747565, No Iterations 4
ExecutionTime = 29.84 s  ClockTime = 31 s

Time = 22

smoothSolver:  Solving for Ux, Initial residual = 0.008572584646, Final residual = 0.0006167637145, No Iterations 5
smoothSolver:  Solving for Uy, Initial residual = 0.01070568108, Final residual = 0.0007975924513, No Iterations 5
smoothSolver:  Solving for Uz, Initial residual = 0.05149191631, Final residual = 0.003544708565, No Iterations 5
smoothSolver:  Solving for T, Initial residual = 0.01709440522, Final residual = 0.001323022009, No Iterations 2
GAMG:  Solving for p_rgh, Initial residual = 0.190758651, Final residual = 0.001733411201, No Iterations 14
time step continuity errors : sum local = 0.03856180321, global = 0.001653577057, cumulative = 0.006903187198
--> FOAM Warning : 
    From function gaussConvectionScheme
    in file finiteVolume/convectionSchemes/gaussConvectionScheme/gaussConvectionScheme.H at line 123
    Reading "/home/ami/Documents/opetus/virtausLaskenta2015_opensource/cases/levitysVersio/cfMeshSerialVersion/system/fvSchemes.divSchemes.div(phi,omega)" at line 47
    Unbounded 'Gauss' div scheme used in steady-state solver, use 'bounded Gauss' to ensure boundedness.
    To remove this warning switch off 'warnUnboundedGauss' in "/opt/OpenFOAM/OpenFOAM-2.4.x/etc/controlDict"
smoothSolver:  Solving for omega, Initial residual = 0.00116404052, Final residual = 8.365344765e-05, No Iterations 4
--> FOAM Warning : 
    From function gaussConvectionScheme
    in file finiteVolume/convectionSchemes/gaussConvectionScheme/gaussConvectionScheme.H at line 123
    Reading "/home/ami/Documents/opetus/virtausLaskenta2015_opensource/cases/levitysVersio/cfMeshSerialVersion/system/fvSchemes.divSchemes.div(phi,k)" at line 43
    Unbounded 'Gauss' div scheme used in steady-state solver, use 'bounded Gauss' to ensure boundedness.
    To remove this warning switch off 'warnUnboundedGauss' in "/opt/OpenFOAM/OpenFOAM-2.4.x/etc/controlDict"
smoothSolver:  Solving for k, Initial residual = 0.03473050714, Final residual = 0.003010956571, No Iterations 4
ExecutionTime = 31.23 s  ClockTime = 32 s

Time = 23

smoothSolver:  Solving for Ux, Initial residual = 0.009277822885, Final residual = 0.000683689566, No Iterations 5
smoothSolver:  Solving for Uy, Initial residual = 0.00954637384, Final residual = 0.0007116179603, No Iterations 5
smoothSolver:  Solving for Uz, Initial residual = 0.04846412697, Final residual = 0.003358994652, No Iterations 5
smoothSolver:  Solving for T, Initial residual = 0.01635447057, Final residual = 0.001258687069, No Iterations 2
GAMG:  Solving for p_rgh, Initial residual = 0.2252235011, Final residual = 0.001875180469, No Iterations 12
time step continuity errors : sum local = 0.033773957, global = -0.001467338513, cumulative = 0.005435848685
--> FOAM Warning : 
    From function gaussConvectionScheme
    in file finiteVolume/convectionSchemes/gaussConvectionScheme/gaussConvectionScheme.H at line 123
    Reading "/home/ami/Documents/opetus/virtausLaskenta2015_opensource/cases/levitysVersio/cfMeshSerialVersion/system/fvSchemes.divSchemes.div(phi,omega)" at line 47
    Unbounded 'Gauss' div scheme used in steady-state solver, use 'bounded Gauss' to ensure boundedness.
    To remove this warning switch off 'warnUnboundedGauss' in "/opt/OpenFOAM/OpenFOAM-2.4.x/etc/controlDict"
smoothSolver:  Solving for omega, Initial residual = 0.001040219901, Final residual = 7.705812319e-05, No Iterations 4
--> FOAM Warning : 
    From function gaussConvectionScheme
    in file finiteVolume/convectionSchemes/gaussConvectionScheme/gaussConvectionScheme.H at line 123
    Reading "/home/ami/Documents/opetus/virtausLaskenta2015_opensource/cases/levitysVersio/cfMeshSerialVersion/system/fvSchemes.divSchemes.div(phi,k)" at line 43
    Unbounded 'Gauss' div scheme used in steady-state solver, use 'bounded Gauss' to ensure boundedness.
    To remove this warning switch off 'warnUnboundedGauss' in "/opt/OpenFOAM/OpenFOAM-2.4.x/etc/controlDict"
smoothSolver:  Solving for k, Initial residual = 0.03332635388, Final residual = 0.002894977628, No Iterations 4
ExecutionTime = 32.58 s  ClockTime = 34 s

Time = 24

smoothSolver:  Solving for Ux, Initial residual = 0.009647801456, Final residual = 0.000718522499, No Iterations 5
smoothSolver:  Solving for Uy, Initial residual = 0.00924354174, Final residual = 0.000723817812, No Iterations 5
smoothSolver:  Solving for Uz, Initial residual = 0.04471835155, Final residual = 0.003125218316, No Iterations 5
smoothSolver:  Solving for T, Initial residual = 0.01565245176, Final residual = 0.001213272985, No Iterations 2
GAMG:  Solving for p_rgh, Initial residual = 0.1905508846, Final residual = 0.001712629487, No Iterations 11
time step continuity errors : sum local = 0.03436419487, global = 0.0007977282764, cumulative = 0.006233576961
--> FOAM Warning : 
    From function gaussConvectionScheme
    in file finiteVolume/convectionSchemes/gaussConvectionScheme/gaussConvectionScheme.H at line 123
    Reading "/home/ami/Documents/opetus/virtausLaskenta2015_opensource/cases/levitysVersio/cfMeshSerialVersion/system/fvSchemes.divSchemes.div(phi,omega)" at line 47
    Unbounded 'Gauss' div scheme used in steady-state solver, use 'bounded Gauss' to ensure boundedness.
    To remove this warning switch off 'warnUnboundedGauss' in "/opt/OpenFOAM/OpenFOAM-2.4.x/etc/controlDict"
smoothSolver:  Solving for omega, Initial residual = 0.0009494515368, Final residual = 7.110461471e-05, No Iterations 4
--> FOAM Warning : 
    From function gaussConvectionScheme
    in file finiteVolume/convectionSchemes/gaussConvectionScheme/gaussConvectionScheme.H at line 123
    Reading "/home/ami/Documents/opetus/virtausLaskenta2015_opensource/cases/levitysVersio/cfMeshSerialVersion/system/fvSchemes.divSchemes.div(phi,k)" at line 43
    Unbounded 'Gauss' div scheme used in steady-state solver, use 'bounded Gauss' to ensure boundedness.
    To remove this warning switch off 'warnUnboundedGauss' in "/opt/OpenFOAM/OpenFOAM-2.4.x/etc/controlDict"
smoothSolver:  Solving for k, Initial residual = 0.03213162875, Final residual = 0.002821838884, No Iterations 4
ExecutionTime = 33.88 s  ClockTime = 35 s

Time = 25

smoothSolver:  Solving for Ux, Initial residual = 0.007471141563, Final residual = 0.0005553536569, No Iterations 5
smoothSolver:  Solving for Uy, Initial residual = 0.008037547415, Final residual = 0.0006205488686, No Iterations 5
smoothSolver:  Solving for Uz, Initial residual = 0.04157416515, Final residual = 0.002901808159, No Iterations 5
smoothSolver:  Solving for T, Initial residual = 0.01500762216, Final residual = 0.001166970562, No Iterations 2
GAMG:  Solving for p_rgh, Initial residual = 0.2615226947, Final residual = 0.002583007609, No Iterations 12
time step continuity errors : sum local = 0.0334377768, global = -0.001485498062, cumulative = 0.0047480789
--> FOAM Warning : 
    From function gaussConvectionScheme
    in file finiteVolume/convectionSchemes/gaussConvectionScheme/gaussConvectionScheme.H at line 123
    Reading "/home/ami/Documents/opetus/virtausLaskenta2015_opensource/cases/levitysVersio/cfMeshSerialVersion/system/fvSchemes.divSchemes.div(phi,omega)" at line 47
    Unbounded 'Gauss' div scheme used in steady-state solver, use 'bounded Gauss' to ensure boundedness.
    To remove this warning switch off 'warnUnboundedGauss' in "/opt/OpenFOAM/OpenFOAM-2.4.x/etc/controlDict"
smoothSolver:  Solving for omega, Initial residual = 0.0008520704772, Final residual = 6.58636083e-05, No Iterations 4
--> FOAM Warning : 
    From function gaussConvectionScheme
    in file finiteVolume/convectionSchemes/gaussConvectionScheme/gaussConvectionScheme.H at line 123
    Reading "/home/ami/Documents/opetus/virtausLaskenta2015_opensource/cases/levitysVersio/cfMeshSerialVersion/system/fvSchemes.divSchemes.div(phi,k)" at line 43
    Unbounded 'Gauss' div scheme used in steady-state solver, use 'bounded Gauss' to ensure boundedness.
    To remove this warning switch off 'warnUnboundedGauss' in "/opt/OpenFOAM/OpenFOAM-2.4.x/etc/controlDict"
smoothSolver:  Solving for k, Initial residual = 0.03084497644, Final residual = 0.002778907155, No Iterations 4
ExecutionTime = 35.21 s  ClockTime = 36 s

Time = 26

smoothSolver:  Solving for Ux, Initial residual = 0.008054742757, Final residual = 0.0006028928027, No Iterations 5
smoothSolver:  Solving for Uy, Initial residual = 0.008605338664, Final residual = 0.0006414645056, No Iterations 5
smoothSolver:  Solving for Uz, Initial residual = 0.03913413768, Final residual = 0.002720592093, No Iterations 5
smoothSolver:  Solving for T, Initial residual = 0.01440758259, Final residual = 0.001123879485, No Iterations 2
GAMG:  Solving for p_rgh, Initial residual = 0.1578186655, Final residual = 0.001249074177, No Iterations 11
time step continuity errors : sum local = 0.0261167545, global = -0.001637607214, cumulative = 0.003110471685
--> FOAM Warning : 
    From function gaussConvectionScheme
    in file finiteVolume/convectionSchemes/gaussConvectionScheme/gaussConvectionScheme.H at line 123
    Reading "/home/ami/Documents/opetus/virtausLaskenta2015_opensource/cases/levitysVersio/cfMeshSerialVersion/system/fvSchemes.divSchemes.div(phi,omega)" at line 47
    Unbounded 'Gauss' div scheme used in steady-state solver, use 'bounded Gauss' to ensure boundedness.
    To remove this warning switch off 'warnUnboundedGauss' in "/opt/OpenFOAM/OpenFOAM-2.4.x/etc/controlDict"
smoothSolver:  Solving for omega, Initial residual = 0.0007757251631, Final residual = 6.15827746e-05, No Iterations 4
--> FOAM Warning : 
    From function gaussConvectionScheme
    in file finiteVolume/convectionSchemes/gaussConvectionScheme/gaussConvectionScheme.H at line 123
    Reading "/home/ami/Documents/opetus/virtausLaskenta2015_opensource/cases/levitysVersio/cfMeshSerialVersion/system/fvSchemes.divSchemes.div(phi,k)" at line 43
    Unbounded 'Gauss' div scheme used in steady-state solver, use 'bounded Gauss' to ensure boundedness.
    To remove this warning switch off 'warnUnboundedGauss' in "/opt/OpenFOAM/OpenFOAM-2.4.x/etc/controlDict"
smoothSolver:  Solving for k, Initial residual = 0.03039768937, Final residual = 0.002749475816, No Iterations 4
ExecutionTime = 36.52 s  ClockTime = 38 s

Time = 27

smoothSolver:  Solving for Ux, Initial residual = 0.008001189441, Final residual = 0.0006018932974, No Iterations 5
smoothSolver:  Solving for Uy, Initial residual = 0.008255251586, Final residual = 0.000612870222, No Iterations 5
smoothSolver:  Solving for Uz, Initial residual = 0.0368884897, Final residual = 0.002565687011, No Iterations 5
smoothSolver:  Solving for T, Initial residual = 0.01386653139, Final residual = 0.001103576577, No Iterations 2
GAMG:  Solving for p_rgh, Initial residual = 0.1456346834, Final residual = 0.001160322442, No Iterations 11
time step continuity errors : sum local = 0.02486322966, global = -0.0002537778866, cumulative = 0.002856693799
--> FOAM Warning : 
    From function gaussConvectionScheme
    in file finiteVolume/convectionSchemes/gaussConvectionScheme/gaussConvectionScheme.H at line 123
    Reading "/home/ami/Documents/opetus/virtausLaskenta2015_opensource/cases/levitysVersio/cfMeshSerialVersion/system/fvSchemes.divSchemes.div(phi,omega)" at line 47
    Unbounded 'Gauss' div scheme used in steady-state solver, use 'bounded Gauss' to ensure boundedness.
    To remove this warning switch off 'warnUnboundedGauss' in "/opt/OpenFOAM/OpenFOAM-2.4.x/etc/controlDict"
smoothSolver:  Solving for omega, Initial residual = 0.000764187502, Final residual = 5.817650382e-05, No Iterations 4
--> FOAM Warning : 
    From function gaussConvectionScheme
    in file finiteVolume/convectionSchemes/gaussConvectionScheme/gaussConvectionScheme.H at line 123
    Reading "/home/ami/Documents/opetus/virtausLaskenta2015_opensource/cases/levitysVersio/cfMeshSerialVersion/system/fvSchemes.divSchemes.div(phi,k)" at line 43
    Unbounded 'Gauss' div scheme used in steady-state solver, use 'bounded Gauss' to ensure boundedness.
    To remove this warning switch off 'warnUnboundedGauss' in "/opt/OpenFOAM/OpenFOAM-2.4.x/etc/controlDict"
smoothSolver:  Solving for k, Initial residual = 0.03013457747, Final residual = 0.002734657138, No Iterations 4
ExecutionTime = 37.82 s  ClockTime = 39 s

Time = 28

smoothSolver:  Solving for Ux, Initial residual = 0.007065336765, Final residual = 0.0005459069834, No Iterations 5
smoothSolver:  Solving for Uy, Initial residual = 0.007192577152, Final residual = 0.0005155165189, No Iterations 5
smoothSolver:  Solving for Uz, Initial residual = 0.03492170881, Final residual = 0.002446791641, No Iterations 5
smoothSolver:  Solving for T, Initial residual = 0.01337942282, Final residual = 0.001091000698, No Iterations 2
GAMG:  Solving for p_rgh, Initial residual = 0.172373754, Final residual = 0.001566614584, No Iterations 12
time step continuity errors : sum local = 0.02568194934, global = 0.001959810859, cumulative = 0.004816504657
--> FOAM Warning : 
    From function gaussConvectionScheme
    in file finiteVolume/convectionSchemes/gaussConvectionScheme/gaussConvectionScheme.H at line 123
    Reading "/home/ami/Documents/opetus/virtausLaskenta2015_opensource/cases/levitysVersio/cfMeshSerialVersion/system/fvSchemes.divSchemes.div(phi,omega)" at line 47
    Unbounded 'Gauss' div scheme used in steady-state solver, use 'bounded Gauss' to ensure boundedness.
    To remove this warning switch off 'warnUnboundedGauss' in "/opt/OpenFOAM/OpenFOAM-2.4.x/etc/controlDict"
smoothSolver:  Solving for omega, Initial residual = 0.0007483357296, Final residual = 5.551687111e-05, No Iterations 4
--> FOAM Warning : 
    From function gaussConvectionScheme
    in file finiteVolume/convectionSchemes/gaussConvectionScheme/gaussConvectionScheme.H at line 123
    Reading "/home/ami/Documents/opetus/virtausLaskenta2015_opensource/cases/levitysVersio/cfMeshSerialVersion/system/fvSchemes.divSchemes.div(phi,k)" at line 43
    Unbounded 'Gauss' div scheme used in steady-state solver, use 'bounded Gauss' to ensure boundedness.
    To remove this warning switch off 'warnUnboundedGauss' in "/opt/OpenFOAM/OpenFOAM-2.4.x/etc/controlDict"
smoothSolver:  Solving for k, Initial residual = 0.02975451302, Final residual = 0.002736819392, No Iterations 4
ExecutionTime = 39.15 s  ClockTime = 40 s

Time = 29

smoothSolver:  Solving for Ux, Initial residual = 0.007140976624, Final residual = 0.0005524753421, No Iterations 5
smoothSolver:  Solving for Uy, Initial residual = 0.006744604875, Final residual = 0.0004854582721, No Iterations 5
smoothSolver:  Solving for Uz, Initial residual = 0.03316412241, Final residual = 0.002344296249, No Iterations 5
smoothSolver:  Solving for T, Initial residual = 0.01292394268, Final residual = 0.001031230808, No Iterations 2
GAMG:  Solving for p_rgh, Initial residual = 0.2127738808, Final residual = 0.001869378577, No Iterations 10
time step continuity errors : sum local = 0.02406565495, global = -0.00143931997, cumulative = 0.003377184687
--> FOAM Warning : 
    From function gaussConvectionScheme
    in file finiteVolume/convectionSchemes/gaussConvectionScheme/gaussConvectionScheme.H at line 123
    Reading "/home/ami/Documents/opetus/virtausLaskenta2015_opensource/cases/levitysVersio/cfMeshSerialVersion/system/fvSchemes.divSchemes.div(phi,omega)" at line 47
    Unbounded 'Gauss' div scheme used in steady-state solver, use 'bounded Gauss' to ensure boundedness.
    To remove this warning switch off 'warnUnboundedGauss' in "/opt/OpenFOAM/OpenFOAM-2.4.x/etc/controlDict"
smoothSolver:  Solving for omega, Initial residual = 0.000712113258, Final residual = 5.330515652e-05, No Iterations 4
--> FOAM Warning : 
    From function gaussConvectionScheme
    in file finiteVolume/convectionSchemes/gaussConvectionScheme/gaussConvectionScheme.H at line 123
    Reading "/home/ami/Documents/opetus/virtausLaskenta2015_opensource/cases/levitysVersio/cfMeshSerialVersion/system/fvSchemes.divSchemes.div(phi,k)" at line 43
    Unbounded 'Gauss' div scheme used in steady-state solver, use 'bounded Gauss' to ensure boundedness.
    To remove this warning switch off 'warnUnboundedGauss' in "/opt/OpenFOAM/OpenFOAM-2.4.x/etc/controlDict"
smoothSolver:  Solving for k, Initial residual = 0.02956659581, Final residual = 0.002759635332, No Iterations 4
ExecutionTime = 40.44 s  ClockTime = 42 s

Time = 30

smoothSolver:  Solving for Ux, Initial residual = 0.007080050684, Final residual = 0.0005498832459, No Iterations 5
smoothSolver:  Solving for Uy, Initial residual = 0.006590434645, Final residual = 0.0004901287789, No Iterations 5
smoothSolver:  Solving for Uz, Initial residual = 0.03121152546, Final residual = 0.00220778191, No Iterations 5
smoothSolver:  Solving for T, Initial residual = 0.01250383456, Final residual = 0.0009904203877, No Iterations 2
GAMG:  Solving for p_rgh, Initial residual = 0.1989029267, Final residual = 0.001943670778, No Iterations 10
time step continuity errors : sum local = 0.02522015985, global = 0.001445819157, cumulative = 0.004823003844
--> FOAM Warning : 
    From function gaussConvectionScheme
    in file finiteVolume/convectionSchemes/gaussConvectionScheme/gaussConvectionScheme.H at line 123
    Reading "/home/ami/Documents/opetus/virtausLaskenta2015_opensource/cases/levitysVersio/cfMeshSerialVersion/system/fvSchemes.divSchemes.div(phi,omega)" at line 47
    Unbounded 'Gauss' div scheme used in steady-state solver, use 'bounded Gauss' to ensure boundedness.
    To remove this warning switch off 'warnUnboundedGauss' in "/opt/OpenFOAM/OpenFOAM-2.4.x/etc/controlDict"
smoothSolver:  Solving for omega, Initial residual = 0.0006827607364, Final residual = 5.131250028e-05, No Iterations 4
--> FOAM Warning : 
    From function gaussConvectionScheme
    in file finiteVolume/convectionSchemes/gaussConvectionScheme/gaussConvectionScheme.H at line 123
    Reading "/home/ami/Documents/opetus/virtausLaskenta2015_opensource/cases/levitysVersio/cfMeshSerialVersion/system/fvSchemes.divSchemes.div(phi,k)" at line 43
    Unbounded 'Gauss' div scheme used in steady-state solver, use 'bounded Gauss' to ensure boundedness.
    To remove this warning switch off 'warnUnboundedGauss' in "/opt/OpenFOAM/OpenFOAM-2.4.x/etc/controlDict"
smoothSolver:  Solving for k, Initial residual = 0.02947461579, Final residual = 0.002791838524, No Iterations 4
ExecutionTime = 41.71 s  ClockTime = 43 s

Time = 31

smoothSolver:  Solving for Ux, Initial residual = 0.006964420558, Final residual = 0.0005436412491, No Iterations 5
smoothSolver:  Solving for Uy, Initial residual = 0.006532340318, Final residual = 0.0004885996467, No Iterations 5
smoothSolver:  Solving for Uz, Initial residual = 0.0292536665, Final residual = 0.002062462651, No Iterations 5
smoothSolver:  Solving for T, Initial residual = 0.01210229693, Final residual = 0.0009543151931, No Iterations 2
GAMG:  Solving for p_rgh, Initial residual = 0.1593800478, Final residual = 0.001456666656, No Iterations 11
time step continuity errors : sum local = 0.02180814693, global = -0.0004733843112, cumulative = 0.004349619533
--> FOAM Warning : 
    From function gaussConvectionScheme
    in file finiteVolume/convectionSchemes/gaussConvectionScheme/gaussConvectionScheme.H at line 123
    Reading "/home/ami/Documents/opetus/virtausLaskenta2015_opensource/cases/levitysVersio/cfMeshSerialVersion/system/fvSchemes.divSchemes.div(phi,omega)" at line 47
    Unbounded 'Gauss' div scheme used in steady-state solver, use 'bounded Gauss' to ensure boundedness.
    To remove this warning switch off 'warnUnboundedGauss' in "/opt/OpenFOAM/OpenFOAM-2.4.x/etc/controlDict"
smoothSolver:  Solving for omega, Initial residual = 0.0006485463374, Final residual = 4.953007009e-05, No Iterations 4
--> FOAM Warning : 
    From function gaussConvectionScheme
    in file finiteVolume/convectionSchemes/gaussConvectionScheme/gaussConvectionScheme.H at line 123
    Reading "/home/ami/Documents/opetus/virtausLaskenta2015_opensource/cases/levitysVersio/cfMeshSerialVersion/system/fvSchemes.divSchemes.div(phi,k)" at line 43
    Unbounded 'Gauss' div scheme used in steady-state solver, use 'bounded Gauss' to ensure boundedness.
    To remove this warning switch off 'warnUnboundedGauss' in "/opt/OpenFOAM/OpenFOAM-2.4.x/etc/controlDict"
smoothSolver:  Solving for k, Initial residual = 0.02949066301, Final residual = 0.002832790211, No Iterations 4
ExecutionTime = 43.01 s  ClockTime = 44 s

Time = 32

smoothSolver:  Solving for Ux, Initial residual = 0.007208082084, Final residual = 0.000557914576, No Iterations 5
smoothSolver:  Solving for Uy, Initial residual = 0.006452676552, Final residual = 0.0004751391046, No Iterations 5
smoothSolver:  Solving for Uz, Initial residual = 0.02757436705, Final residual = 0.001932771029, No Iterations 5
smoothSolver:  Solving for T, Initial residual = 0.01174297516, Final residual = 0.0009237792748, No Iterations 2
GAMG:  Solving for p_rgh, Initial residual = 0.1330997207, Final residual = 0.001180067807, No Iterations 9
time step continuity errors : sum local = 0.02043899795, global = -0.0009662058402, cumulative = 0.003383413693
--> FOAM Warning : 
    From function gaussConvectionScheme
    in file finiteVolume/convectionSchemes/gaussConvectionScheme/gaussConvectionScheme.H at line 123
    Reading "/home/ami/Documents/opetus/virtausLaskenta2015_opensource/cases/levitysVersio/cfMeshSerialVersion/system/fvSchemes.divSchemes.div(phi,omega)" at line 47
    Unbounded 'Gauss' div scheme used in steady-state solver, use 'bounded Gauss' to ensure boundedness.
    To remove this warning switch off 'warnUnboundedGauss' in "/opt/OpenFOAM/OpenFOAM-2.4.x/etc/controlDict"
smoothSolver:  Solving for omega, Initial residual = 0.000627056743, Final residual = 4.807055961e-05, No Iterations 4
--> FOAM Warning : 
    From function gaussConvectionScheme
    in file finiteVolume/convectionSchemes/gaussConvectionScheme/gaussConvectionScheme.H at line 123
    Reading "/home/ami/Documents/opetus/virtausLaskenta2015_opensource/cases/levitysVersio/cfMeshSerialVersion/system/fvSchemes.divSchemes.div(phi,k)" at line 43
    Unbounded 'Gauss' div scheme used in steady-state solver, use 'bounded Gauss' to ensure boundedness.
    To remove this warning switch off 'warnUnboundedGauss' in "/opt/OpenFOAM/OpenFOAM-2.4.x/etc/controlDict"
smoothSolver:  Solving for k, Initial residual = 0.02965375301, Final residual = 0.002878051781, No Iterations 4
ExecutionTime = 44.26 s  ClockTime = 45 s

Time = 33

smoothSolver:  Solving for Ux, Initial residual = 0.007190313196, Final residual = 0.0005567160432, No Iterations 5
smoothSolver:  Solving for Uy, Initial residual = 0.006155658874, Final residual = 0.0004437868422, No Iterations 5
smoothSolver:  Solving for Uz, Initial residual = 0.02610043838, Final residual = 0.001825423539, No Iterations 5
smoothSolver:  Solving for T, Initial residual = 0.01138370868, Final residual = 0.0008922265315, No Iterations 2
GAMG:  Solving for p_rgh, Initial residual = 0.1275539228, Final residual = 0.0008827936035, No Iterations 10
time step continuity errors : sum local = 0.01521745931, global = 4.571567288e-05, cumulative = 0.003429129366
--> FOAM Warning : 
    From function gaussConvectionScheme
    in file finiteVolume/convectionSchemes/gaussConvectionScheme/gaussConvectionScheme.H at line 123
    Reading "/home/ami/Documents/opetus/virtausLaskenta2015_opensource/cases/levitysVersio/cfMeshSerialVersion/system/fvSchemes.divSchemes.div(phi,omega)" at line 47
    Unbounded 'Gauss' div scheme used in steady-state solver, use 'bounded Gauss' to ensure boundedness.
    To remove this warning switch off 'warnUnboundedGauss' in "/opt/OpenFOAM/OpenFOAM-2.4.x/etc/controlDict"
smoothSolver:  Solving for omega, Initial residual = 0.0006195933806, Final residual = 4.69045927e-05, No Iterations 4
--> FOAM Warning : 
    From function gaussConvectionScheme
    in file finiteVolume/convectionSchemes/gaussConvectionScheme/gaussConvectionScheme.H at line 123
    Reading "/home/ami/Documents/opetus/virtausLaskenta2015_opensource/cases/levitysVersio/cfMeshSerialVersion/system/fvSchemes.divSchemes.div(phi,k)" at line 43
    Unbounded 'Gauss' div scheme used in steady-state solver, use 'bounded Gauss' to ensure boundedness.
    To remove this warning switch off 'warnUnboundedGauss' in "/opt/OpenFOAM/OpenFOAM-2.4.x/etc/controlDict"
smoothSolver:  Solving for k, Initial residual = 0.02980648698, Final residual = 0.002930314623, No Iterations 4
ExecutionTime = 45.53 s  ClockTime = 47 s

Time = 34

smoothSolver:  Solving for Ux, Initial residual = 0.007056391231, Final residual = 0.0005456927866, No Iterations 5
smoothSolver:  Solving for Uy, Initial residual = 0.005793948054, Final residual = 0.0004120881182, No Iterations 5
smoothSolver:  Solving for Uz, Initial residual = 0.02523215248, Final residual = 0.001762026554, No Iterations 5
smoothSolver:  Solving for T, Initial residual = 0.01106101014, Final residual = 0.0008581745541, No Iterations 2
GAMG:  Solving for p_rgh, Initial residual = 0.1320514259, Final residual = 0.0009915232079, No Iterations 10
time step continuity errors : sum local = 0.01556217814, global = -0.0002748980397, cumulative = 0.003154231326
--> FOAM Warning : 
    From function gaussConvectionScheme
    in file finiteVolume/convectionSchemes/gaussConvectionScheme/gaussConvectionScheme.H at line 123
    Reading "/home/ami/Documents/opetus/virtausLaskenta2015_opensource/cases/levitysVersio/cfMeshSerialVersion/system/fvSchemes.divSchemes.div(phi,omega)" at line 47
    Unbounded 'Gauss' div scheme used in steady-state solver, use 'bounded Gauss' to ensure boundedness.
    To remove this warning switch off 'warnUnboundedGauss' in "/opt/OpenFOAM/OpenFOAM-2.4.x/etc/controlDict"
smoothSolver:  Solving for omega, Initial residual = 0.0006129509478, Final residual = 4.589259225e-05, No Iterations 4
--> FOAM Warning : 
    From function gaussConvectionScheme
    in file finiteVolume/convectionSchemes/gaussConvectionScheme/gaussConvectionScheme.H at line 123
    Reading "/home/ami/Documents/opetus/virtausLaskenta2015_opensource/cases/levitysVersio/cfMeshSerialVersion/system/fvSchemes.divSchemes.div(phi,k)" at line 43
    Unbounded 'Gauss' div scheme used in steady-state solver, use 'bounded Gauss' to ensure boundedness.
    To remove this warning switch off 'warnUnboundedGauss' in "/opt/OpenFOAM/OpenFOAM-2.4.x/etc/controlDict"
smoothSolver:  Solving for k, Initial residual = 0.03008318587, Final residual = 0.002983415065, No Iterations 4
ExecutionTime = 46.81 s  ClockTime = 48 s

Time = 35

smoothSolver:  Solving for Ux, Initial residual = 0.007038921143, Final residual = 0.0005387304532, No Iterations 5
smoothSolver:  Solving for Uy, Initial residual = 0.005632099124, Final residual = 0.0004050295617, No Iterations 5
smoothSolver:  Solving for Uz, Initial residual = 0.02473261079, Final residual = 0.001713742777, No Iterations 5
smoothSolver:  Solving for T, Initial residual = 0.01077251015, Final residual = 0.0008279461767, No Iterations 2
GAMG:  Solving for p_rgh, Initial residual = 0.1368707734, Final residual = 0.001359748314, No Iterations 8
time step continuity errors : sum local = 0.01996818457, global = 0.0004033701361, cumulative = 0.003557601462
--> FOAM Warning : 
    From function gaussConvectionScheme
    in file finiteVolume/convectionSchemes/gaussConvectionScheme/gaussConvectionScheme.H at line 123
    Reading "/home/ami/Documents/opetus/virtausLaskenta2015_opensource/cases/levitysVersio/cfMeshSerialVersion/system/fvSchemes.divSchemes.div(phi,omega)" at line 47
    Unbounded 'Gauss' div scheme used in steady-state solver, use 'bounded Gauss' to ensure boundedness.
    To remove this warning switch off 'warnUnboundedGauss' in "/opt/OpenFOAM/OpenFOAM-2.4.x/etc/controlDict"
smoothSolver:  Solving for omega, Initial residual = 0.0006006717761, Final residual = 4.487280309e-05, No Iterations 4
--> FOAM Warning : 
    From function gaussConvectionScheme
    in file finiteVolume/convectionSchemes/gaussConvectionScheme/gaussConvectionScheme.H at line 123
    Reading "/home/ami/Documents/opetus/virtausLaskenta2015_opensource/cases/levitysVersio/cfMeshSerialVersion/system/fvSchemes.divSchemes.div(phi,k)" at line 43
    Unbounded 'Gauss' div scheme used in steady-state solver, use 'bounded Gauss' to ensure boundedness.
    To remove this warning switch off 'warnUnboundedGauss' in "/opt/OpenFOAM/OpenFOAM-2.4.x/etc/controlDict"
smoothSolver:  Solving for k, Initial residual = 0.03051678448, Final residual = 0.003037712484, No Iterations 4
ExecutionTime = 48.04 s  ClockTime = 49 s

Time = 36

smoothSolver:  Solving for Ux, Initial residual = 0.006997850291, Final residual = 0.0005311637485, No Iterations 5
smoothSolver:  Solving for Uy, Initial residual = 0.005556897592, Final residual = 0.0004054149617, No Iterations 5
smoothSolver:  Solving for Uz, Initial residual = 0.02407598969, Final residual = 0.001650852497, No Iterations 5
smoothSolver:  Solving for T, Initial residual = 0.0104916742, Final residual = 0.000800416621, No Iterations 2
GAMG:  Solving for p_rgh, Initial residual = 0.129871783, Final residual = 0.001256882561, No Iterations 8
time step continuity errors : sum local = 0.01900123659, global = 9.41427036e-05, cumulative = 0.003651744166
--> FOAM Warning : 
    From function gaussConvectionScheme
    in file finiteVolume/convectionSchemes/gaussConvectionScheme/gaussConvectionScheme.H at line 123
    Reading "/home/ami/Documents/opetus/virtausLaskenta2015_opensource/cases/levitysVersio/cfMeshSerialVersion/system/fvSchemes.divSchemes.div(phi,omega)" at line 47
    Unbounded 'Gauss' div scheme used in steady-state solver, use 'bounded Gauss' to ensure boundedness.
    To remove this warning switch off 'warnUnboundedGauss' in "/opt/OpenFOAM/OpenFOAM-2.4.x/etc/controlDict"
smoothSolver:  Solving for omega, Initial residual = 0.0005837241163, Final residual = 4.376479597e-05, No Iterations 4
--> FOAM Warning : 
    From function gaussConvectionScheme
    in file finiteVolume/convectionSchemes/gaussConvectionScheme/gaussConvectionScheme.H at line 123
    Reading "/home/ami/Documents/opetus/virtausLaskenta2015_opensource/cases/levitysVersio/cfMeshSerialVersion/system/fvSchemes.divSchemes.div(phi,k)" at line 43
    Unbounded 'Gauss' div scheme used in steady-state solver, use 'bounded Gauss' to ensure boundedness.
    To remove this warning switch off 'warnUnboundedGauss' in "/opt/OpenFOAM/OpenFOAM-2.4.x/etc/controlDict"
smoothSolver:  Solving for k, Initial residual = 0.03098749264, Final residual = 0.003084546921, No Iterations 4
ExecutionTime = 49.26 s  ClockTime = 50 s

Time = 37

smoothSolver:  Solving for Ux, Initial residual = 0.007023081812, Final residual = 0.0005263542215, No Iterations 5
smoothSolver:  Solving for Uy, Initial residual = 0.005503870095, Final residual = 0.0004023135031, No Iterations 5
smoothSolver:  Solving for Uz, Initial residual = 0.02318167067, Final residual = 0.001585434069, No Iterations 5
smoothSolver:  Solving for T, Initial residual = 0.01022380174, Final residual = 0.0007739211722, No Iterations 2
GAMG:  Solving for p_rgh, Initial residual = 0.1167758397, Final residual = 0.001048010273, No Iterations 8
time step continuity errors : sum local = 0.017146325, global = 0.0001783468848, cumulative = 0.003830091051
--> FOAM Warning : 
    From function gaussConvectionScheme
    in file finiteVolume/convectionSchemes/gaussConvectionScheme/gaussConvectionScheme.H at line 123
    Reading "/home/ami/Documents/opetus/virtausLaskenta2015_opensource/cases/levitysVersio/cfMeshSerialVersion/system/fvSchemes.divSchemes.div(phi,omega)" at line 47
    Unbounded 'Gauss' div scheme used in steady-state solver, use 'bounded Gauss' to ensure boundedness.
    To remove this warning switch off 'warnUnboundedGauss' in "/opt/OpenFOAM/OpenFOAM-2.4.x/etc/controlDict"
smoothSolver:  Solving for omega, Initial residual = 0.0005666419171, Final residual = 4.272921415e-05, No Iterations 4
--> FOAM Warning : 
    From function gaussConvectionScheme
    in file finiteVolume/convectionSchemes/gaussConvectionScheme/gaussConvectionScheme.H at line 123
    Reading "/home/ami/Documents/opetus/virtausLaskenta2015_opensource/cases/levitysVersio/cfMeshSerialVersion/system/fvSchemes.divSchemes.div(phi,k)" at line 43
    Unbounded 'Gauss' div scheme used in steady-state solver, use 'bounded Gauss' to ensure boundedness.
    To remove this warning switch off 'warnUnboundedGauss' in "/opt/OpenFOAM/OpenFOAM-2.4.x/etc/controlDict"
smoothSolver:  Solving for k, Initial residual = 0.03139547788, Final residual = 0.003114789955, No Iterations 4
ExecutionTime = 50.5 s  ClockTime = 52 s

Time = 38

smoothSolver:  Solving for Ux, Initial residual = 0.007115566349, Final residual = 0.0005230356962, No Iterations 5
smoothSolver:  Solving for Uy, Initial residual = 0.00537179904, Final residual = 0.0003864455595, No Iterations 5
smoothSolver:  Solving for Uz, Initial residual = 0.02243882515, Final residual = 0.001544279436, No Iterations 5
smoothSolver:  Solving for T, Initial residual = 0.009980554762, Final residual = 0.0007486434166, No Iterations 2
GAMG:  Solving for p_rgh, Initial residual = 0.10746595, Final residual = 0.0009326613979, No Iterations 8
time step continuity errors : sum local = 0.01616975602, global = 0.0005559326019, cumulative = 0.004386023652
--> FOAM Warning : 
    From function gaussConvectionScheme
    in file finiteVolume/convectionSchemes/gaussConvectionScheme/gaussConvectionScheme.H at line 123
    Reading "/home/ami/Documents/opetus/virtausLaskenta2015_opensource/cases/levitysVersio/cfMeshSerialVersion/system/fvSchemes.divSchemes.div(phi,omega)" at line 47
    Unbounded 'Gauss' div scheme used in steady-state solver, use 'bounded Gauss' to ensure boundedness.
    To remove this warning switch off 'warnUnboundedGauss' in "/opt/OpenFOAM/OpenFOAM-2.4.x/etc/controlDict"
smoothSolver:  Solving for omega, Initial residual = 0.0005584040057, Final residual = 4.165144304e-05, No Iterations 4
--> FOAM Warning : 
    From function gaussConvectionScheme
    in file finiteVolume/convectionSchemes/gaussConvectionScheme/gaussConvectionScheme.H at line 123
    Reading "/home/ami/Documents/opetus/virtausLaskenta2015_opensource/cases/levitysVersio/cfMeshSerialVersion/system/fvSchemes.divSchemes.div(phi,k)" at line 43
    Unbounded 'Gauss' div scheme used in steady-state solver, use 'bounded Gauss' to ensure boundedness.
    To remove this warning switch off 'warnUnboundedGauss' in "/opt/OpenFOAM/OpenFOAM-2.4.x/etc/controlDict"
smoothSolver:  Solving for k, Initial residual = 0.03169892964, Final residual = 0.003142437141, No Iterations 4
ExecutionTime = 51.72 s  ClockTime = 53 s

Time = 39

smoothSolver:  Solving for Ux, Initial residual = 0.007126359564, Final residual = 0.000514468443, No Iterations 5
smoothSolver:  Solving for Uy, Initial residual = 0.005153679439, Final residual = 0.0003642069002, No Iterations 5
[...]
smoothSolver:  Solving for T, Initial residual = 0.001715146599, Final residual = 0.0001305190445, No Iterations 2
GAMG:  Solving for p_rgh, Initial residual = 0.001481515037, Final residual = 1.217454241e-05, No Iterations 7
time step continuity errors : sum local = 0.0001818612555, global = 1.373578356e-07, cumulative = 0.004749694359
smoothSolver:  Solving for omega, Initial residual = 4.884571732e-06, Final residual = 7.937218519e-07, No Iterations 2
smoothSolver:  Solving for k, Initial residual = 0.0001157635842, Final residual = 8.673523063e-06, No Iterations 4
ExecutionTime = 226.7 s  ClockTime = 231 s

Time = 187

smoothSolver:  Solving for Ux, Initial residual = 2.733510132e-05, Final residual = 1.867732932e-06, No Iterations 5
smoothSolver:  Solving for Uy, Initial residual = 2.021085846e-05, Final residual = 2.020144952e-06, No Iterations 4
smoothSolver:  Solving for Uz, Initial residual = 0.0002565204735, Final residual = 2.451712607e-05, No Iterations 4
smoothSolver:  Solving for T, Initial residual = 0.001657173007, Final residual = 0.0001274398164, No Iterations 2
GAMG:  Solving for p_rgh, Initial residual = 0.001520802487, Final residual = 1.218395757e-05, No Iterations 7
time step continuity errors : sum local = 0.0001820015125, global = 1.115734851e-07, cumulative = 0.004749805933
smoothSolver:  Solving for omega, Initial residual = 4.873292205e-06, Final residual = 7.950198238e-07, No Iterations 2
smoothSolver:  Solving for k, Initial residual = 0.0001154374617, Final residual = 8.703001775e-06, No Iterations 4
ExecutionTime = 227.88 s  ClockTime = 232 s

Time = 188

smoothSolver:  Solving for Ux, Initial residual = 2.793229739e-05, Final residual = 1.924924013e-06, No Iterations 5
smoothSolver:  Solving for Uy, Initial residual = 2.026455116e-05, Final residual = 1.19363271e-06, No Iterations 5
smoothSolver:  Solving for Uz, Initial residual = 0.0002570515765, Final residual = 2.439523718e-05, No Iterations 4
smoothSolver:  Solving for T, Initial residual = 0.001609301011, Final residual = 0.0001222940745, No Iterations 2
GAMG:  Solving for p_rgh, Initial residual = 0.001550228794, Final residual = 1.207445037e-05, No Iterations 7
time step continuity errors : sum local = 0.0001803659499, global = 1.545807585e-07, cumulative = 0.004749960514
smoothSolver:  Solving for omega, Initial residual = 4.845279601e-06, Final residual = 7.944150392e-07, No Iterations 2
smoothSolver:  Solving for k, Initial residual = 0.0001147366361, Final residual = 8.729392936e-06, No Iterations 4
ExecutionTime = 229.09 s  ClockTime = 233 s

Time = 189

smoothSolver:  Solving for Ux, Initial residual = 2.851869912e-05, Final residual = 1.972045121e-06, No Iterations 5
smoothSolver:  Solving for Uy, Initial residual = 2.01071795e-05, Final residual = 1.184209683e-06, No Iterations 5
smoothSolver:  Solving for Uz, Initial residual = 0.0002566061998, Final residual = 2.415320821e-05, No Iterations 4
smoothSolver:  Solving for T, Initial residual = 0.001553597627, Final residual = 0.0001188052542, No Iterations 2
GAMG:  Solving for p_rgh, Initial residual = 0.001571016109, Final residual = 1.192644428e-05, No Iterations 7
time step continuity errors : sum local = 0.000178155607, global = 1.616383534e-08, cumulative = 0.004749976677
smoothSolver:  Solving for omega, Initial residual = 4.806896777e-06, Final residual = 7.909072118e-07, No Iterations 2
smoothSolver:  Solving for k, Initial residual = 0.0001137037155, Final residual = 8.756207602e-06, No Iterations 4
ExecutionTime = 230.31 s  ClockTime = 234 s

Time = 190

smoothSolver:  Solving for Ux, Initial residual = 2.899937535e-05, Final residual = 2.005390817e-06, No Iterations 5
smoothSolver:  Solving for Uy, Initial residual = 1.994619444e-05, Final residual = 1.175474533e-06, No Iterations 5
smoothSolver:  Solving for Uz, Initial residual = 0.000254569968, Final residual = 2.377893887e-05, No Iterations 4
smoothSolver:  Solving for T, Initial residual = 0.001501394133, Final residual = 0.0001138384875, No Iterations 2
GAMG:  Solving for p_rgh, Initial residual = 0.001580456865, Final residual = 1.175741626e-05, No Iterations 7
time step continuity errors : sum local = 0.000175631089, global = 5.117132985e-11, cumulative = 0.004749976729
smoothSolver:  Solving for omega, Initial residual = 4.75370099e-06, Final residual = 7.847691304e-07, No Iterations 2
smoothSolver:  Solving for k, Initial residual = 0.0001124306762, Final residual = 8.794635309e-06, No Iterations 4
ExecutionTime = 231.53 s  ClockTime = 236 s

Time = 191

smoothSolver:  Solving for Ux, Initial residual = 2.933585724e-05, Final residual = 2.022667828e-06, No Iterations 5
smoothSolver:  Solving for Uy, Initial residual = 1.982244826e-05, Final residual = 1.170545085e-06, No Iterations 5
smoothSolver:  Solving for Uz, Initial residual = 0.0002509517435, Final residual = 2.326294486e-05, No Iterations 4
smoothSolver:  Solving for T, Initial residual = 0.001445607347, Final residual = 0.0001102940927, No Iterations 2
GAMG:  Solving for p_rgh, Initial residual = 0.001577735683, Final residual = 1.160925223e-05, No Iterations 7
time step continuity errors : sum local = 0.0001734185348, global = -3.155838446e-08, cumulative = 0.00474994517
smoothSolver:  Solving for omega, Initial residual = 4.681060165e-06, Final residual = 7.756298196e-07, No Iterations 2
smoothSolver:  Solving for k, Initial residual = 0.0001110289284, Final residual = 8.854198615e-06, No Iterations 4
ExecutionTime = 232.75 s  ClockTime = 237 s

Time = 192

smoothSolver:  Solving for Ux, Initial residual = 2.950851277e-05, Final residual = 2.022512169e-06, No Iterations 5
smoothSolver:  Solving for Uy, Initial residual = 1.969554874e-05, Final residual = 1.165965361e-06, No Iterations 5
smoothSolver:  Solving for Uz, Initial residual = 0.0002460145923, Final residual = 2.260556848e-05, No Iterations 4
smoothSolver:  Solving for T, Initial residual = 0.001394705039, Final residual = 0.0001050836446, No Iterations 2
GAMG:  Solving for p_rgh, Initial residual = 0.001565847175, Final residual = 1.139617465e-05, No Iterations 7
time step continuity errors : sum local = 0.0001702362053, global = -5.220077896e-09, cumulative = 0.00474993995
smoothSolver:  Solving for omega, Initial residual = 4.584283116e-06, Final residual = 7.637039668e-07, No Iterations 2
smoothSolver:  Solving for k, Initial residual = 0.0001094871019, Final residual = 8.9318736e-06, No Iterations 4
ExecutionTime = 233.95 s  ClockTime = 238 s

Time = 193

smoothSolver:  Solving for Ux, Initial residual = 2.948868542e-05, Final residual = 2.006057928e-06, No Iterations 5
smoothSolver:  Solving for Uy, Initial residual = 1.948997664e-05, Final residual = 1.154974112e-06, No Iterations 5
smoothSolver:  Solving for Uz, Initial residual = 0.0002398493539, Final residual = 2.187090088e-05, No Iterations 4
smoothSolver:  Solving for T, Initial residual = 0.001337811006, Final residual = 0.0001007973813, No Iterations 2
GAMG:  Solving for p_rgh, Initial residual = 0.001541126915, Final residual = 1.107440629e-05, No Iterations 7
time step continuity errors : sum local = 0.0001654305664, global = 7.747245488e-08, cumulative = 0.004750017423
smoothSolver:  Solving for omega, Initial residual = 4.47282789e-06, Final residual = 7.489182249e-07, No Iterations 2
smoothSolver:  Solving for k, Initial residual = 0.0001078934724, Final residual = 9.005140593e-06, No Iterations 4
ExecutionTime = 235.17 s  ClockTime = 239 s

Time = 194

smoothSolver:  Solving for Ux, Initial residual = 2.926267052e-05, Final residual = 1.972993286e-06, No Iterations 5
smoothSolver:  Solving for Uy, Initial residual = 1.919508608e-05, Final residual = 1.136240113e-06, No Iterations 5
smoothSolver:  Solving for Uz, Initial residual = 0.0002331373949, Final residual = 2.10942143e-05, No Iterations 4
smoothSolver:  Solving for T, Initial residual = 0.001288759653, Final residual = 9.77391992e-05, No Iterations 2
GAMG:  Solving for p_rgh, Initial residual = 0.001502368976, Final residual = 1.068667435e-05, No Iterations 7
time step continuity errors : sum local = 0.0001596400399, global = 1.480724281e-07, cumulative = 0.004750165495
smoothSolver:  Solving for omega, Initial residual = 4.348676558e-06, Final residual = 7.321872848e-07, No Iterations 2
smoothSolver:  Solving for k, Initial residual = 0.0001063868963, Final residual = 9.048841717e-06, No Iterations 4
ExecutionTime = 236.36 s  ClockTime = 241 s

Time = 195

smoothSolver:  Solving for Ux, Initial residual = 2.886932646e-05, Final residual = 1.925237986e-06, No Iterations 5
smoothSolver:  Solving for Uy, Initial residual = 1.880766633e-05, Final residual = 1.110637816e-06, No Iterations 5
smoothSolver:  Solving for Uz, Initial residual = 0.0002259366701, Final residual = 2.028146859e-05, No Iterations 4
smoothSolver:  Solving for T, Initial residual = 0.001236043288, Final residual = 9.295841167e-05, No Iterations 2
GAMG:  Solving for p_rgh, Initial residual = 0.001456831521, Final residual = 1.028879265e-05, No Iterations 7
time step continuity errors : sum local = 0.0001536982092, global = 2.087700292e-07, cumulative = 0.004750374265
smoothSolver:  Solving for omega, Initial residual = 4.224016214e-06, Final residual = 7.146223716e-07, No Iterations 2
smoothSolver:  Solving for k, Initial residual = 0.0001047304321, Final residual = 9.038610451e-06, No Iterations 4
ExecutionTime = 237.56 s  ClockTime = 242 s

Time = 196

smoothSolver:  Solving for Ux, Initial residual = 2.832047299e-05, Final residual = 1.863379803e-06, No Iterations 5
smoothSolver:  Solving for Uy, Initial residual = 1.837491697e-05, Final residual = 1.082269799e-06, No Iterations 5
smoothSolver:  Solving for Uz, Initial residual = 0.0002183367002, Final residual = 1.944835415e-05, No Iterations 4
smoothSolver:  Solving for T, Initial residual = 0.001185954949, Final residual = 8.875073537e-05, No Iterations 2
GAMG:  Solving for p_rgh, Initial residual = 0.001402991642, Final residual = 9.898024288e-06, No Iterations 7
time step continuity errors : sum local = 0.0001478626708, global = 1.692227932e-07, cumulative = 0.004750543488
smoothSolver:  Solving for omega, Initial residual = 4.107741983e-06, Final residual = 6.96848572e-07, No Iterations 2
smoothSolver:  Solving for k, Initial residual = 0.0001030352479, Final residual = 8.984715425e-06, No Iterations 4
ExecutionTime = 238.78 s  ClockTime = 243 s

Time = 197

smoothSolver:  Solving for Ux, Initial residual = 2.768973159e-05, Final residual = 1.79539958e-06, No Iterations 5
smoothSolver:  Solving for Uy, Initial residual = 1.793928344e-05, Final residual = 1.055363775e-06, No Iterations 5
smoothSolver:  Solving for Uz, Initial residual = 0.0002107502338, Final residual = 1.864697683e-05, No Iterations 4
smoothSolver:  Solving for T, Initial residual = 0.001134664121, Final residual = 8.561445282e-05, No Iterations 2
GAMG:  Solving for p_rgh, Initial residual = 0.001347866695, Final residual = 1.334609794e-05, No Iterations 6
time step continuity errors : sum local = 0.0001993744527, global = 6.811430515e-07, cumulative = 0.004751224631
smoothSolver:  Solving for omega, Initial residual = 4.010899935e-06, Final residual = 6.817092121e-07, No Iterations 2
smoothSolver:  Solving for k, Initial residual = 0.0001014080075, Final residual = 8.893491237e-06, No Iterations 4
ExecutionTime = 239.96 s  ClockTime = 244 s

Time = 198

smoothSolver:  Solving for Ux, Initial residual = 2.705163227e-05, Final residual = 1.732430253e-06, No Iterations 5
smoothSolver:  Solving for Uy, Initial residual = 1.753539318e-05, Final residual = 1.032265369e-06, No Iterations 5
smoothSolver:  Solving for Uz, Initial residual = 0.0002040309498, Final residual = 1.801177678e-05, No Iterations 4
smoothSolver:  Solving for T, Initial residual = 0.001084142988, Final residual = 8.355390201e-05, No Iterations 2
GAMG:  Solving for p_rgh, Initial residual = 0.00129196052, Final residual = 9.191358296e-06, No Iterations 7
time step continuity errors : sum local = 0.0001373090057, global = 3.134907178e-08, cumulative = 0.00475125598
smoothSolver:  Solving for omega, Initial residual = 3.945307601e-06, Final residual = 6.725152851e-07, No Iterations 2
smoothSolver:  Solving for k, Initial residual = 9.982706436e-05, Final residual = 8.773402044e-06, No Iterations 4
ExecutionTime = 241.22 s  ClockTime = 245 s

Time = 199

smoothSolver:  Solving for Ux, Initial residual = 2.647762739e-05, Final residual = 1.672930171e-06, No Iterations 5
smoothSolver:  Solving for Uy, Initial residual = 1.725382428e-05, Final residual = 1.020230943e-06, No Iterations 5
smoothSolver:  Solving for Uz, Initial residual = 0.0001996176687, Final residual = 1.764977802e-05, No Iterations 4
smoothSolver:  Solving for T, Initial residual = 0.001033718482, Final residual = 7.68357443e-05, No Iterations 2
GAMG:  Solving for p_rgh, Initial residual = 0.001234505968, Final residual = 1.210348666e-05, No Iterations 6
time step continuity errors : sum local = 0.0001808143038, global = 5.612579093e-07, cumulative = 0.004751817238
smoothSolver:  Solving for omega, Initial residual = 3.935949497e-06, Final residual = 6.695615641e-07, No Iterations 2
smoothSolver:  Solving for k, Initial residual = 9.849285173e-05, Final residual = 8.648633222e-06, No Iterations 4
ExecutionTime = 242.41 s  ClockTime = 247 s

Time = 200

smoothSolver:  Solving for Ux, Initial residual = 2.59574889e-05, Final residual = 1.614805608e-06, No Iterations 5
smoothSolver:  Solving for Uy, Initial residual = 1.700794531e-05, Final residual = 1.012576117e-06, No Iterations 5
smoothSolver:  Solving for Uz, Initial residual = 0.000197041767, Final residual = 1.747772121e-05, No Iterations 4
smoothSolver:  Solving for T, Initial residual = 0.0009896010695, Final residual = 7.542474218e-05, No Iterations 2
GAMG:  Solving for p_rgh, Initial residual = 0.001180409146, Final residual = 1.179468879e-05, No Iterations 6
time step continuity errors : sum local = 0.0001762012832, global = 3.823888339e-07, cumulative = 0.004752199627
smoothSolver:  Solving for omega, Initial residual = 3.960012227e-06, Final residual = 6.70670428e-07, No Iterations 2
smoothSolver:  Solving for k, Initial residual = 9.792897048e-05, Final residual = 8.544546309e-06, No Iterations 4
ExecutionTime = 244.57 s  ClockTime = 249 s

Time = 201

smoothSolver:  Solving for Ux, Initial residual = 2.549490638e-05, Final residual = 1.557227129e-06, No Iterations 5
smoothSolver:  Solving for Uy, Initial residual = 1.682198411e-05, Final residual = 1.005626721e-06, No Iterations 5
smoothSolver:  Solving for Uz, Initial residual = 0.0001963505317, Final residual = 1.748682279e-05, No Iterations 4
smoothSolver:  Solving for T, Initial residual = 0.0009417679415, Final residual = 7.185633869e-05, No Iterations 2
GAMG:  Solving for p_rgh, Initial residual = 0.001133441348, Final residual = 8.472258268e-06, No Iterations 7
time step continuity errors : sum local = 0.0001265672206, global = 3.126565347e-07, cumulative = 0.004752512283
smoothSolver:  Solving for omega, Initial residual = 4.015336737e-06, Final residual = 6.749269834e-07, No Iterations 2
smoothSolver:  Solving for k, Initial residual = 9.795564808e-05, Final residual = 8.422555027e-06, No Iterations 4
ExecutionTime = 245.81 s  ClockTime = 250 s

Time = 202

smoothSolver:  Solving for Ux, Initial residual = 2.507391397e-05, Final residual = 1.505298181e-06, No Iterations 5
smoothSolver:  Solving for Uy, Initial residual = 1.673696141e-05, Final residual = 1.00254491e-06, No Iterations 5
smoothSolver:  Solving for Uz, Initial residual = 0.0001976794204, Final residual = 1.769121004e-05, No Iterations 4
smoothSolver:  Solving for T, Initial residual = 0.0008942055395, Final residual = 6.811665286e-05, No Iterations 2
GAMG:  Solving for p_rgh, Initial residual = 0.001103747654, Final residual = 8.605511931e-06, No Iterations 7
time step continuity errors : sum local = 0.0001285579334, global = 1.588284957e-07, cumulative = 0.004752671112
smoothSolver:  Solving for omega, Initial residual = 4.088570972e-06, Final residual = 6.809476528e-07, No Iterations 2
smoothSolver:  Solving for k, Initial residual = 9.838706847e-05, Final residual = 8.30054961e-06, No Iterations 4
ExecutionTime = 247.01 s  ClockTime = 251 s

Time = 203

smoothSolver:  Solving for Ux, Initial residual = 2.470396215e-05, Final residual = 1.466127661e-06, No Iterations 5
smoothSolver:  Solving for Uy, Initial residual = 1.670914179e-05, Final residual = 1.00220574e-06, No Iterations 5
smoothSolver:  Solving for Uz, Initial residual = 0.0002003846216, Final residual = 1.804246712e-05, No Iterations 4
smoothSolver:  Solving for T, Initial residual = 0.000845021757, Final residual = 6.48719077e-05, No Iterations 2
GAMG:  Solving for p_rgh, Initial residual = 0.0010895419, Final residual = 9.125510271e-06, No Iterations 7
time step continuity errors : sum local = 0.0001363259336, global = 1.730633474e-08, cumulative = 0.004752688418
smoothSolver:  Solving for omega, Initial residual = 4.174205857e-06, Final residual = 6.888491041e-07, No Iterations 2
smoothSolver:  Solving for k, Initial residual = 9.908407425e-05, Final residual = 8.19582859e-06, No Iterations 4
ExecutionTime = 248.21 s  ClockTime = 252 s

Time = 204

smoothSolver:  Solving for Ux, Initial residual = 2.436343775e-05, Final residual = 1.434093103e-06, No Iterations 5
smoothSolver:  Solving for Uy, Initial residual = 1.674471893e-05, Final residual = 1.003302709e-06, No Iterations 5
smoothSolver:  Solving for Uz, Initial residual = 0.0002039521133, Final residual = 1.851101313e-05, No Iterations 4
smoothSolver:  Solving for T, Initial residual = 0.0008047253285, Final residual = 6.185630697e-05, No Iterations 2
GAMG:  Solving for p_rgh, Initial residual = 0.001088834229, Final residual = 9.814776572e-06, No Iterations 7
time step continuity errors : sum local = 0.0001466222582, global = -1.329828041e-07, cumulative = 0.004752555435
smoothSolver:  Solving for omega, Initial residual = 4.273701897e-06, Final residual = 6.981868379e-07, No Iterations 2
smoothSolver:  Solving for k, Initial residual = 0.0001000377582, Final residual = 8.111531987e-06, No Iterations 4
ExecutionTime = 249.44 s  ClockTime = 254 s

Time = 205

smoothSolver:  Solving for Ux, Initial residual = 2.413522648e-05, Final residual = 2.410343648e-06, No Iterations 4
smoothSolver:  Solving for Uy, Initial residual = 1.690686908e-05, Final residual = 1.008065878e-06, No Iterations 5
smoothSolver:  Solving for Uz, Initial residual = 0.0002084848331, Final residual = 1.910647033e-05, No Iterations 4
smoothSolver:  Solving for T, Initial residual = 0.0007574598009, Final residual = 5.91151997e-05, No Iterations 2
GAMG:  Solving for p_rgh, Initial residual = 0.001101774604, Final residual = 1.038111475e-05, No Iterations 7
time step continuity errors : sum local = 0.0001550819358, global = -5.382871896e-07, cumulative = 0.004752017148
smoothSolver:  Solving for omega, Initial residual = 4.366865382e-06, Final residual = 7.068807762e-07, No Iterations 2
smoothSolver:  Solving for k, Initial residual = 0.0001009787432, Final residual = 8.04791512e-06, No Iterations 4
ExecutionTime = 250.66 s  ClockTime = 255 s

Time = 206

smoothSolver:  Solving for Ux, Initial residual = 2.407562793e-05, Final residual = 2.405586345e-06, No Iterations 4
smoothSolver:  Solving for Uy, Initial residual = 1.712881428e-05, Final residual = 1.017823126e-06, No Iterations 5
smoothSolver:  Solving for Uz, Initial residual = 0.0002134015231, Final residual = 1.979073387e-05, No Iterations 4
smoothSolver:  Solving for T, Initial residual = 0.0007190372416, Final residual = 5.520689193e-05, No Iterations 2
GAMG:  Solving for p_rgh, Initial residual = 0.001131869497, Final residual = 1.093344589e-05, No Iterations 7
time step continuity errors : sum local = 0.0001633322244, global = -6.808047435e-07, cumulative = 0.004751336343
