/*---------------------------------------------------------------------------*\
| =========                 |                                                 |
| \\      /  F ield         | OpenFOAM: The Open Source CFD Toolbox           |
|  \\    /   O peration     | Version:  2.3.1                                 |
|   \\  /    A nd           | Web:      www.OpenFOAM.org                      |
|    \\/     M anipulation  |                                                 |
\*---------------------------------------------------------------------------*/
Build  : 2.3.1-bcfaaa7b8660
Exec   : buoyantBoussinesqSimpleFoam -parallel -case /home/ami/Desktop/virtauslaskenta/etukateenTehty/helyxVersion
Date   : Oct 21 2015
Time   : 16:02:06
Host   : "lapami"
PID    : 16012
Case   : /home/ami/Desktop/virtauslaskenta/etukateenTehty/helyxVersion
nProcs : 2
Slaves : 1("lapami.16013")
Pstream initialized with:
    floatTransfer      : 0
    nProcsSimpleSum    : 0
    commsType          : nonBlocking
    polling iterations : 0
sigFpe : Enabling floating point exception trapping (FOAM_SIGFPE).
fileModificationChecking : Monitoring run-time modified files using timeStampMaster
allowSystemOperations : Allowing user-supplied system call operations

// * * * * * * * * * * * * * * * * * * * * * * * * * * * * * * * * * * * * * //
Create time

Create mesh for time = 0


Reading g
Reading thermophysical properties

Reading field T

Reading field p_rgh

Reading field U

Reading/calculating face flux field phi

Selecting incompressible transport model Newtonian
Creating turbulence model

Selecting RAS turbulence model kOmegaSST
kOmegaSSTCoeffs
{
    label           "k-\u03C9 SST";
    fieldMaps
    {
        k               k;
        omega           omega;
        nut             nut;
    }
    alphaK1         0.85034;
    alphaK2         1;
    alphaOmega1     0.5;
    alphaOmega2     0.85616;
    gamma1          0.5532;
    gamma2          0.4403;
    beta1           0.075;
    beta2           0.0828;
    betaStar        0.09;
    a1              0.31;
    c1              10;
    Cmu             0.09;
    b1              1;
    F3              false;
}

Reading field alphat

Calculating field g.h

Creating finite volume options from "system/fvOptions"


SIMPLE: convergence criteria
    field U	 tolerance 0.001
    field k	 tolerance 0.001
    field epsilon	 tolerance 1e-05
    field omega	 tolerance 0.001
    field nuTilda	 tolerance 1e-05
    field T	 tolerance 0.001
    field p_rgh	 tolerance 0.001
    field p	 tolerance 1e-05


Starting time loop

Time = 1

smoothSolver:  Solving for Ux, Initial residual = 1, Final residual = 0.06042935477, No Iterations 3
smoothSolver:  Solving for Uy, Initial residual = 1, Final residual = 0.05866123355, No Iterations 3
smoothSolver:  Solving for Uz, Initial residual = 1, Final residual = 0.09160769935, No Iterations 3
smoothSolver:  Solving for T, Initial residual = 1, Final residual = 0.06105851086, No Iterations 3
GAMG:  Solving for p_rgh, Initial residual = 1, Final residual = 0.006032038861, No Iterations 9
time step continuity errors : sum local = 0.116252701, global = 1.035349387e-05, cumulative = 1.035349387e-05
--> FOAM Warning : 
    From function gaussConvectionScheme
    in file finiteVolume/convectionSchemes/gaussConvectionScheme/gaussConvectionScheme.H at line 123
    Reading "/home/ami/Desktop/virtauslaskenta/etukateenTehty/helyxVersion/system/fvSchemes.divSchemes.div(phi,omega)" at line 47
    Unbounded 'Gauss' div scheme used in steady-state solver, use 'bounded Gauss' to ensure boundedness.
    To remove this warning switch off 'warnUnboundedGauss' in "/opt/openfoam231/etc/controlDict"
smoothSolver:  Solving for omega, Initial residual = 0.627694617, Final residual = 0.02148549438, No Iterations 2
--> FOAM Warning : 
    From function gaussConvectionScheme
    in file finiteVolume/convectionSchemes/gaussConvectionScheme/gaussConvectionScheme.H at line 123
    Reading "/home/ami/Desktop/virtauslaskenta/etukateenTehty/helyxVersion/system/fvSchemes.divSchemes.div(phi,k)" at line 43
    Unbounded 'Gauss' div scheme used in steady-state solver, use 'bounded Gauss' to ensure boundedness.
    To remove this warning switch off 'warnUnboundedGauss' in "/opt/openfoam231/etc/controlDict"
smoothSolver:  Solving for k, Initial residual = 1, Final residual = 0.04672484744, No Iterations 2
ExecutionTime = 0.38 s  ClockTime = 0 s

Time = 2

smoothSolver:  Solving for Ux, Initial residual = 0.1073327532, Final residual = 0.009244626411, No Iterations 2
smoothSolver:  Solving for Uy, Initial residual = 0.1569643715, Final residual = 0.01348191322, No Iterations 2
smoothSolver:  Solving for Uz, Initial residual = 0.4997439058, Final residual = 0.02216171258, No Iterations 2
smoothSolver:  Solving for T, Initial residual = 0.5468254086, Final residual = 0.04187958909, No Iterations 2
GAMG:  Solving for p_rgh, Initial residual = 0.3688331967, Final residual = 0.003310459257, No Iterations 23
time step continuity errors : sum local = 0.2530785808, global = 0.000489686203, cumulative = 0.0005000396968
--> FOAM Warning : 
    From function gaussConvectionScheme
    in file finiteVolume/convectionSchemes/gaussConvectionScheme/gaussConvectionScheme.H at line 123
    Reading "/home/ami/Desktop/virtauslaskenta/etukateenTehty/helyxVersion/system/fvSchemes.divSchemes.div(phi,omega)" at line 47
    Unbounded 'Gauss' div scheme used in steady-state solver, use 'bounded Gauss' to ensure boundedness.
    To remove this warning switch off 'warnUnboundedGauss' in "/opt/openfoam231/etc/controlDict"
smoothSolver:  Solving for omega, Initial residual = 0.3193370126, Final residual = 0.01493059229, No Iterations 2
--> FOAM Warning : 
    From function gaussConvectionScheme
    in file finiteVolume/convectionSchemes/gaussConvectionScheme/gaussConvectionScheme.H at line 123
    Reading "/home/ami/Desktop/virtauslaskenta/etukateenTehty/helyxVersion/system/fvSchemes.divSchemes.div(phi,k)" at line 43
    Unbounded 'Gauss' div scheme used in steady-state solver, use 'bounded Gauss' to ensure boundedness.
    To remove this warning switch off 'warnUnboundedGauss' in "/opt/openfoam231/etc/controlDict"
smoothSolver:  Solving for k, Initial residual = 0.676957977, Final residual = 0.03994628189, No Iterations 2
ExecutionTime = 0.61 s  ClockTime = 1 s

Time = 3

smoothSolver:  Solving for Ux, Initial residual = 0.3982330358, Final residual = 0.01932307703, No Iterations 3
smoothSolver:  Solving for Uy, Initial residual = 0.3158968009, Final residual = 0.01377387375, No Iterations 3
smoothSolver:  Solving for Uz, Initial residual = 0.3990000385, Final residual = 0.03633700438, No Iterations 2
smoothSolver:  Solving for T, Initial residual = 0.3292684817, Final residual = 0.02750656376, No Iterations 2
GAMG:  Solving for p_rgh, Initial residual = 0.06377299425, Final residual = 0.0004176416896, No Iterations 5
time step continuity errors : sum local = 0.3225125872, global = -0.001609820462, cumulative = -0.001109780765
--> FOAM Warning : 
    From function gaussConvectionScheme
    in file finiteVolume/convectionSchemes/gaussConvectionScheme/gaussConvectionScheme.H at line 123
    Reading "/home/ami/Desktop/virtauslaskenta/etukateenTehty/helyxVersion/system/fvSchemes.divSchemes.div(phi,omega)" at line 47
    Unbounded 'Gauss' div scheme used in steady-state solver, use 'bounded Gauss' to ensure boundedness.
    To remove this warning switch off 'warnUnboundedGauss' in "/opt/openfoam231/etc/controlDict"
smoothSolver:  Solving for omega, Initial residual = 0.2065893268, Final residual = 0.01327752891, No Iterations 2
--> FOAM Warning : 
    From function gaussConvectionScheme
    in file finiteVolume/convectionSchemes/gaussConvectionScheme/gaussConvectionScheme.H at line 123
    Reading "/home/ami/Desktop/virtauslaskenta/etukateenTehty/helyxVersion/system/fvSchemes.divSchemes.div(phi,k)" at line 43
    Unbounded 'Gauss' div scheme used in steady-state solver, use 'bounded Gauss' to ensure boundedness.
    To remove this warning switch off 'warnUnboundedGauss' in "/opt/openfoam231/etc/controlDict"
smoothSolver:  Solving for k, Initial residual = 0.6629141115, Final residual = 0.04227254645, No Iterations 2
ExecutionTime = 0.79 s  ClockTime = 1 s

Time = 4

smoothSolver:  Solving for Ux, Initial residual = 0.2464224956, Final residual = 0.01190721763, No Iterations 3
smoothSolver:  Solving for Uy, Initial residual = 0.1876021677, Final residual = 0.007934193567, No Iterations 3
smoothSolver:  Solving for Uz, Initial residual = 0.1948561797, Final residual = 0.01871802345, No Iterations 2
smoothSolver:  Solving for T, Initial residual = 0.181374787, Final residual = 0.01124008304, No Iterations 2
GAMG:  Solving for p_rgh, Initial residual = 0.06044863001, Final residual = 0.0004005079731, No Iterations 12
time step continuity errors : sum local = 0.2909345442, global = 0.008377398165, cumulative = 0.0072676174
--> FOAM Warning : 
    From function gaussConvectionScheme
    in file finiteVolume/convectionSchemes/gaussConvectionScheme/gaussConvectionScheme.H at line 123
    Reading "/home/ami/Desktop/virtauslaskenta/etukateenTehty/helyxVersion/system/fvSchemes.divSchemes.div(phi,omega)" at line 47
    Unbounded 'Gauss' div scheme used in steady-state solver, use 'bounded Gauss' to ensure boundedness.
    To remove this warning switch off 'warnUnboundedGauss' in "/opt/openfoam231/etc/controlDict"
smoothSolver:  Solving for omega, Initial residual = 0.1084949511, Final residual = 0.007827437767, No Iterations 2
--> FOAM Warning : 
    From function gaussConvectionScheme
    in file finiteVolume/convectionSchemes/gaussConvectionScheme/gaussConvectionScheme.H at line 123
    Reading "/home/ami/Desktop/virtauslaskenta/etukateenTehty/helyxVersion/system/fvSchemes.divSchemes.div(phi,k)" at line 43
    Unbounded 'Gauss' div scheme used in steady-state solver, use 'bounded Gauss' to ensure boundedness.
    To remove this warning switch off 'warnUnboundedGauss' in "/opt/openfoam231/etc/controlDict"
smoothSolver:  Solving for k, Initial residual = 0.414167542, Final residual = 0.02570666483, No Iterations 2
ExecutionTime = 0.98 s  ClockTime = 1 s

Time = 5

smoothSolver:  Solving for Ux, Initial residual = 0.03604564312, Final residual = 0.001506200518, No Iterations 3
smoothSolver:  Solving for Uy, Initial residual = 0.04356561494, Final residual = 0.001902791423, No Iterations 3
smoothSolver:  Solving for Uz, Initial residual = 0.2614674442, Final residual = 0.01976040909, No Iterations 2
smoothSolver:  Solving for T, Initial residual = 0.1159794065, Final residual = 0.007185121988, No Iterations 2
GAMG:  Solving for p_rgh, Initial residual = 0.3083093228, Final residual = 0.002267327121, No Iterations 12
time step continuity errors : sum local = 0.248412115, global = 0.007167244464, cumulative = 0.01443486186
--> FOAM Warning : 
    From function gaussConvectionScheme
    in file finiteVolume/convectionSchemes/gaussConvectionScheme/gaussConvectionScheme.H at line 123
    Reading "/home/ami/Desktop/virtauslaskenta/etukateenTehty/helyxVersion/system/fvSchemes.divSchemes.div(phi,omega)" at line 47
    Unbounded 'Gauss' div scheme used in steady-state solver, use 'bounded Gauss' to ensure boundedness.
    To remove this warning switch off 'warnUnboundedGauss' in "/opt/openfoam231/etc/controlDict"
smoothSolver:  Solving for omega, Initial residual = 0.06308810808, Final residual = 0.004738886566, No Iterations 2
--> FOAM Warning : 
    From function gaussConvectionScheme
    in file finiteVolume/convectionSchemes/gaussConvectionScheme/gaussConvectionScheme.H at line 123
    Reading "/home/ami/Desktop/virtauslaskenta/etukateenTehty/helyxVersion/system/fvSchemes.divSchemes.div(phi,k)" at line 43
    Unbounded 'Gauss' div scheme used in steady-state solver, use 'bounded Gauss' to ensure boundedness.
    To remove this warning switch off 'warnUnboundedGauss' in "/opt/openfoam231/etc/controlDict"
smoothSolver:  Solving for k, Initial residual = 0.194467256, Final residual = 0.01236927363, No Iterations 2
ExecutionTime = 1.18 s  ClockTime = 1 s

Time = 6

smoothSolver:  Solving for Ux, Initial residual = 0.190695802, Final residual = 0.008647074471, No Iterations 3
smoothSolver:  Solving for Uy, Initial residual = 0.1448706852, Final residual = 0.006279613641, No Iterations 3
smoothSolver:  Solving for Uz, Initial residual = 0.2615986903, Final residual = 0.02351702019, No Iterations 2
smoothSolver:  Solving for T, Initial residual = 0.08687160706, Final residual = 0.006234535776, No Iterations 2
GAMG:  Solving for p_rgh, Initial residual = 0.1043209783, Final residual = 0.0007914808245, No Iterations 7
time step continuity errors : sum local = 0.3697856377, global = 0.008179793819, cumulative = 0.02261465568
--> FOAM Warning : 
    From function gaussConvectionScheme
    in file finiteVolume/convectionSchemes/gaussConvectionScheme/gaussConvectionScheme.H at line 123
    Reading "/home/ami/Desktop/virtauslaskenta/etukateenTehty/helyxVersion/system/fvSchemes.divSchemes.div(phi,omega)" at line 47
    Unbounded 'Gauss' div scheme used in steady-state solver, use 'bounded Gauss' to ensure boundedness.
    To remove this warning switch off 'warnUnboundedGauss' in "/opt/openfoam231/etc/controlDict"
smoothSolver:  Solving for omega, Initial residual = 0.04620950726, Final residual = 0.00353976133, No Iterations 2
--> FOAM Warning : 
    From function gaussConvectionScheme
    in file finiteVolume/convectionSchemes/gaussConvectionScheme/gaussConvectionScheme.H at line 123
    Reading "/home/ami/Desktop/virtauslaskenta/etukateenTehty/helyxVersion/system/fvSchemes.divSchemes.div(phi,k)" at line 43
    Unbounded 'Gauss' div scheme used in steady-state solver, use 'bounded Gauss' to ensure boundedness.
    To remove this warning switch off 'warnUnboundedGauss' in "/opt/openfoam231/etc/controlDict"
smoothSolver:  Solving for k, Initial residual = 0.1342856818, Final residual = 0.006958584928, No Iterations 2
ExecutionTime = 1.36 s  ClockTime = 1 s

Time = 7

smoothSolver:  Solving for Ux, Initial residual = 0.1920663357, Final residual = 0.008858200037, No Iterations 3
smoothSolver:  Solving for Uy, Initial residual = 0.1478519807, Final residual = 0.006342524773, No Iterations 3
smoothSolver:  Solving for Uz, Initial residual = 0.1981751539, Final residual = 0.008307084456, No Iterations 3
smoothSolver:  Solving for T, Initial residual = 0.07255558559, Final residual = 0.005370230652, No Iterations 2
GAMG:  Solving for p_rgh, Initial residual = 0.1169054164, Final residual = 0.0007972103961, No Iterations 11
time step continuity errors : sum local = 0.318528886, global = 0.00940309831, cumulative = 0.03201775399
--> FOAM Warning : 
    From function gaussConvectionScheme
    in file finiteVolume/convectionSchemes/gaussConvectionScheme/gaussConvectionScheme.H at line 123
    Reading "/home/ami/Desktop/virtauslaskenta/etukateenTehty/helyxVersion/system/fvSchemes.divSchemes.div(phi,omega)" at line 47
    Unbounded 'Gauss' div scheme used in steady-state solver, use 'bounded Gauss' to ensure boundedness.
    To remove this warning switch off 'warnUnboundedGauss' in "/opt/openfoam231/etc/controlDict"
smoothSolver:  Solving for omega, Initial residual = 0.0353666679, Final residual = 0.002826923546, No Iterations 2
--> FOAM Warning : 
    From function gaussConvectionScheme
    in file finiteVolume/convectionSchemes/gaussConvectionScheme/gaussConvectionScheme.H at line 123
    Reading "/home/ami/Desktop/virtauslaskenta/etukateenTehty/helyxVersion/system/fvSchemes.divSchemes.div(phi,k)" at line 43
    Unbounded 'Gauss' div scheme used in steady-state solver, use 'bounded Gauss' to ensure boundedness.
    To remove this warning switch off 'warnUnboundedGauss' in "/opt/openfoam231/etc/controlDict"
smoothSolver:  Solving for k, Initial residual = 0.1452961498, Final residual = 0.007243039345, No Iterations 2
ExecutionTime = 1.56 s  ClockTime = 1 s

Time = 8

smoothSolver:  Solving for Ux, Initial residual = 0.04241303431, Final residual = 0.001808719217, No Iterations 3
smoothSolver:  Solving for Uy, Initial residual = 0.05342166741, Final residual = 0.002269324582, No Iterations 3
smoothSolver:  Solving for Uz, Initial residual = 0.2455486933, Final residual = 0.02180351009, No Iterations 2
smoothSolver:  Solving for T, Initial residual = 0.06078788047, Final residual = 0.005074541803, No Iterations 2
GAMG:  Solving for p_rgh, Initial residual = 0.3988078524, Final residual = 0.002818232288, No Iterations 11
time step continuity errors : sum local = 0.2326000191, global = 0.005604241821, cumulative = 0.03762199581
--> FOAM Warning : 
    From function gaussConvectionScheme
    in file finiteVolume/convectionSchemes/gaussConvectionScheme/gaussConvectionScheme.H at line 123
    Reading "/home/ami/Desktop/virtauslaskenta/etukateenTehty/helyxVersion/system/fvSchemes.divSchemes.div(phi,omega)" at line 47
    Unbounded 'Gauss' div scheme used in steady-state solver, use 'bounded Gauss' to ensure boundedness.
    To remove this warning switch off 'warnUnboundedGauss' in "/opt/openfoam231/etc/controlDict"
smoothSolver:  Solving for omega, Initial residual = 0.0284171118, Final residual = 0.00237912736, No Iterations 2
--> FOAM Warning : 
    From function gaussConvectionScheme
    in file finiteVolume/convectionSchemes/gaussConvectionScheme/gaussConvectionScheme.H at line 123
    Reading "/home/ami/Desktop/virtauslaskenta/etukateenTehty/helyxVersion/system/fvSchemes.divSchemes.div(phi,k)" at line 43
    Unbounded 'Gauss' div scheme used in steady-state solver, use 'bounded Gauss' to ensure boundedness.
    To remove this warning switch off 'warnUnboundedGauss' in "/opt/openfoam231/etc/controlDict"
smoothSolver:  Solving for k, Initial residual = 0.09883610011, Final residual = 0.006814023738, No Iterations 2
ExecutionTime = 1.74 s  ClockTime = 2 s

Time = 9

smoothSolver:  Solving for Ux, Initial residual = 0.1202575383, Final residual = 0.005730740816, No Iterations 3
smoothSolver:  Solving for Uy, Initial residual = 0.1110015807, Final residual = 0.005082250006, No Iterations 3
smoothSolver:  Solving for Uz, Initial residual = 0.2225471125, Final residual = 0.02050157592, No Iterations 2
smoothSolver:  Solving for T, Initial residual = 0.05469131733, Final residual = 0.004889166325, No Iterations 2
GAMG:  Solving for p_rgh, Initial residual = 0.1090778358, Final residual = 0.0006888018623, No Iterations 8
time step continuity errors : sum local = 0.2192042233, global = 0.00495999282, cumulative = 0.04258198863
--> FOAM Warning : 
    From function gaussConvectionScheme
    in file finiteVolume/convectionSchemes/gaussConvectionScheme/gaussConvectionScheme.H at line 123
    Reading "/home/ami/Desktop/virtauslaskenta/etukateenTehty/helyxVersion/system/fvSchemes.divSchemes.div(phi,omega)" at line 47
    Unbounded 'Gauss' div scheme used in steady-state solver, use 'bounded Gauss' to ensure boundedness.
    To remove this warning switch off 'warnUnboundedGauss' in "/opt/openfoam231/etc/controlDict"
smoothSolver:  Solving for omega, Initial residual = 0.02552048889, Final residual = 0.002193420596, No Iterations 2
--> FOAM Warning : 
    From function gaussConvectionScheme
    in file finiteVolume/convectionSchemes/gaussConvectionScheme/gaussConvectionScheme.H at line 123
    Reading "/home/ami/Desktop/virtauslaskenta/etukateenTehty/helyxVersion/system/fvSchemes.divSchemes.div(phi,k)" at line 43
    Unbounded 'Gauss' div scheme used in steady-state solver, use 'bounded Gauss' to ensure boundedness.
    To remove this warning switch off 'warnUnboundedGauss' in "/opt/openfoam231/etc/controlDict"
smoothSolver:  Solving for k, Initial residual = 0.07239981788, Final residual = 0.005256093631, No Iterations 2
ExecutionTime = 1.92 s  ClockTime = 2 s

Time = 10

smoothSolver:  Solving for Ux, Initial residual = 0.07802676104, Final residual = 0.003790907142, No Iterations 3
smoothSolver:  Solving for Uy, Initial residual = 0.06963198444, Final residual = 0.003156051944, No Iterations 3
smoothSolver:  Solving for Uz, Initial residual = 0.146593596, Final residual = 0.006486038547, No Iterations 3
smoothSolver:  Solving for T, Initial residual = 0.04818541311, Final residual = 0.004511551709, No Iterations 2
GAMG:  Solving for p_rgh, Initial residual = 0.1339594956, Final residual = 0.001016127632, No Iterations 10
time step continuity errors : sum local = 0.2450343456, global = 0.009022079845, cumulative = 0.05160406848
--> FOAM Warning : 
    From function gaussConvectionScheme
    in file finiteVolume/convectionSchemes/gaussConvectionScheme/gaussConvectionScheme.H at line 123
    Reading "/home/ami/Desktop/virtauslaskenta/etukateenTehty/helyxVersion/system/fvSchemes.divSchemes.div(phi,omega)" at line 47
    Unbounded 'Gauss' div scheme used in steady-state solver, use 'bounded Gauss' to ensure boundedness.
    To remove this warning switch off 'warnUnboundedGauss' in "/opt/openfoam231/etc/controlDict"
smoothSolver:  Solving for omega, Initial residual = 0.01850147005, Final residual = 0.001646428157, No Iterations 2
--> FOAM Warning : 
    From function gaussConvectionScheme
    in file finiteVolume/convectionSchemes/gaussConvectionScheme/gaussConvectionScheme.H at line 123
    Reading "/home/ami/Desktop/virtauslaskenta/etukateenTehty/helyxVersion/system/fvSchemes.divSchemes.div(phi,k)" at line 43
    Unbounded 'Gauss' div scheme used in steady-state solver, use 'bounded Gauss' to ensure boundedness.
    To remove this warning switch off 'warnUnboundedGauss' in "/opt/openfoam231/etc/controlDict"
smoothSolver:  Solving for k, Initial residual = 0.07591895327, Final residual = 0.004833509447, No Iterations 2
ExecutionTime = 2.12 s  ClockTime = 2 s

Time = 11

smoothSolver:  Solving for Ux, Initial residual = 0.02604400019, Final residual = 0.001027425227, No Iterations 3
smoothSolver:  Solving for Uy, Initial residual = 0.03487604346, Final residual = 0.001542604048, No Iterations 3
smoothSolver:  Solving for Uz, Initial residual = 0.1410766187, Final residual = 0.0138304164, No Iterations 2
smoothSolver:  Solving for T, Initial residual = 0.04233332205, Final residual = 0.004209199433, No Iterations 2
GAMG:  Solving for p_rgh, Initial residual = 0.373189653, Final residual = 0.002606770291, No Iterations 10
time step continuity errors : sum local = 0.1860277202, global = 0.005431558125, cumulative = 0.0570356266
--> FOAM Warning : 
    From function gaussConvectionScheme
    in file finiteVolume/convectionSchemes/gaussConvectionScheme/gaussConvectionScheme.H at line 123
    Reading "/home/ami/Desktop/virtauslaskenta/etukateenTehty/helyxVersion/system/fvSchemes.divSchemes.div(phi,omega)" at line 47
    Unbounded 'Gauss' div scheme used in steady-state solver, use 'bounded Gauss' to ensure boundedness.
    To remove this warning switch off 'warnUnboundedGauss' in "/opt/openfoam231/etc/controlDict"
smoothSolver:  Solving for omega, Initial residual = 0.01703151041, Final residual = 0.001495817994, No Iterations 2
--> FOAM Warning : 
    From function gaussConvectionScheme
    in file finiteVolume/convectionSchemes/gaussConvectionScheme/gaussConvectionScheme.H at line 123
    Reading "/home/ami/Desktop/virtauslaskenta/etukateenTehty/helyxVersion/system/fvSchemes.divSchemes.div(phi,k)" at line 43
    Unbounded 'Gauss' div scheme used in steady-state solver, use 'bounded Gauss' to ensure boundedness.
    To remove this warning switch off 'warnUnboundedGauss' in "/opt/openfoam231/etc/controlDict"
smoothSolver:  Solving for k, Initial residual = 0.05473546545, Final residual = 0.003904082914, No Iterations 2
ExecutionTime = 2.31 s  ClockTime = 2 s

Time = 12

smoothSolver:  Solving for Ux, Initial residual = 0.06787970977, Final residual = 0.003080724161, No Iterations 3
smoothSolver:  Solving for Uy, Initial residual = 0.05978638282, Final residual = 0.002777951794, No Iterations 3
smoothSolver:  Solving for Uz, Initial residual = 0.123141673, Final residual = 0.01214746607, No Iterations 2
smoothSolver:  Solving for T, Initial residual = 0.03886010929, Final residual = 0.001545067585, No Iterations 3
GAMG:  Solving for p_rgh, Initial residual = 0.1527278238, Final residual = 0.001140136334, No Iterations 8
time step continuity errors : sum local = 0.2122593874, global = -0.005131883589, cumulative = 0.05190374301
--> FOAM Warning : 
    From function gaussConvectionScheme
    in file finiteVolume/convectionSchemes/gaussConvectionScheme/gaussConvectionScheme.H at line 123
    Reading "/home/ami/Desktop/virtauslaskenta/etukateenTehty/helyxVersion/system/fvSchemes.divSchemes.div(phi,omega)" at line 47
    Unbounded 'Gauss' div scheme used in steady-state solver, use 'bounded Gauss' to ensure boundedness.
    To remove this warning switch off 'warnUnboundedGauss' in "/opt/openfoam231/etc/controlDict"
smoothSolver:  Solving for omega, Initial residual = 0.01650054745, Final residual = 0.001461252182, No Iterations 2
--> FOAM Warning : 
    From function gaussConvectionScheme
    in file finiteVolume/convectionSchemes/gaussConvectionScheme/gaussConvectionScheme.H at line 123
    Reading "/home/ami/Desktop/virtauslaskenta/etukateenTehty/helyxVersion/system/fvSchemes.divSchemes.div(phi,k)" at line 43
    Unbounded 'Gauss' div scheme used in steady-state solver, use 'bounded Gauss' to ensure boundedness.
    To remove this warning switch off 'warnUnboundedGauss' in "/opt/openfoam231/etc/controlDict"
smoothSolver:  Solving for k, Initial residual = 0.05839273399, Final residual = 0.003418238405, No Iterations 2
ExecutionTime = 2.49 s  ClockTime = 2 s

Time = 13

smoothSolver:  Solving for Ux, Initial residual = 0.04585168623, Final residual = 0.00216689749, No Iterations 3
smoothSolver:  Solving for Uy, Initial residual = 0.04245673853, Final residual = 0.001929066618, No Iterations 3
smoothSolver:  Solving for Uz, Initial residual = 0.09815568829, Final residual = 0.003919711572, No Iterations 3
smoothSolver:  Solving for T, Initial residual = 0.03472420196, Final residual = 0.001403040086, No Iterations 3
GAMG:  Solving for p_rgh, Initial residual = 0.2060396893, Final residual = 0.001827497664, No Iterations 9
time step continuity errors : sum local = 0.2323371869, global = 0.008298667552, cumulative = 0.06020241057
--> FOAM Warning : 
    From function gaussConvectionScheme
    in file finiteVolume/convectionSchemes/gaussConvectionScheme/gaussConvectionScheme.H at line 123
    Reading "/home/ami/Desktop/virtauslaskenta/etukateenTehty/helyxVersion/system/fvSchemes.divSchemes.div(phi,omega)" at line 47
    Unbounded 'Gauss' div scheme used in steady-state solver, use 'bounded Gauss' to ensure boundedness.
    To remove this warning switch off 'warnUnboundedGauss' in "/opt/openfoam231/etc/controlDict"
smoothSolver:  Solving for omega, Initial residual = 0.01283573167, Final residual = 0.001126492019, No Iterations 2
--> FOAM Warning : 
    From function gaussConvectionScheme
    in file finiteVolume/convectionSchemes/gaussConvectionScheme/gaussConvectionScheme.H at line 123
    Reading "/home/ami/Desktop/virtauslaskenta/etukateenTehty/helyxVersion/system/fvSchemes.divSchemes.div(phi,k)" at line 43
    Unbounded 'Gauss' div scheme used in steady-state solver, use 'bounded Gauss' to ensure boundedness.
    To remove this warning switch off 'warnUnboundedGauss' in "/opt/openfoam231/etc/controlDict"
smoothSolver:  Solving for k, Initial residual = 0.05234882747, Final residual = 0.003156149114, No Iterations 2
ExecutionTime = 2.67 s  ClockTime = 3 s

Time = 14

smoothSolver:  Solving for Ux, Initial residual = 0.02699926135, Final residual = 0.001183481654, No Iterations 3
smoothSolver:  Solving for Uy, Initial residual = 0.02808175008, Final residual = 0.001311165791, No Iterations 3
smoothSolver:  Solving for Uz, Initial residual = 0.1090446235, Final residual = 0.004236024748, No Iterations 3
smoothSolver:  Solving for T, Initial residual = 0.03199889427, Final residual = 0.001308749084, No Iterations 3
GAMG:  Solving for p_rgh, Initial residual = 0.2742710585, Final residual = 0.001925851354, No Iterations 9
time step continuity errors : sum local = 0.1529637374, global = 0.003931360714, cumulative = 0.06413377128
--> FOAM Warning : 
    From function gaussConvectionScheme
    in file finiteVolume/convectionSchemes/gaussConvectionScheme/gaussConvectionScheme.H at line 123
    Reading "/home/ami/Desktop/virtauslaskenta/etukateenTehty/helyxVersion/system/fvSchemes.divSchemes.div(phi,omega)" at line 47
    Unbounded 'Gauss' div scheme used in steady-state solver, use 'bounded Gauss' to ensure boundedness.
    To remove this warning switch off 'warnUnboundedGauss' in "/opt/openfoam231/etc/controlDict"
smoothSolver:  Solving for omega, Initial residual = 0.01115890083, Final residual = 0.0009538940234, No Iterations 2
--> FOAM Warning : 
    From function gaussConvectionScheme
    in file finiteVolume/convectionSchemes/gaussConvectionScheme/gaussConvectionScheme.H at line 123
    Reading "/home/ami/Desktop/virtauslaskenta/etukateenTehty/helyxVersion/system/fvSchemes.divSchemes.div(phi,k)" at line 43
    Unbounded 'Gauss' div scheme used in steady-state solver, use 'bounded Gauss' to ensure boundedness.
    To remove this warning switch off 'warnUnboundedGauss' in "/opt/openfoam231/etc/controlDict"
smoothSolver:  Solving for k, Initial residual = 0.03847961049, Final residual = 0.00281830122, No Iterations 2
ExecutionTime = 2.87 s  ClockTime = 3 s

Time = 15

smoothSolver:  Solving for Ux, Initial residual = 0.03967897539, Final residual = 0.001885760847, No Iterations 3
smoothSolver:  Solving for Uy, Initial residual = 0.03779223648, Final residual = 0.001840327061, No Iterations 3
smoothSolver:  Solving for Uz, Initial residual = 0.1015526975, Final residual = 0.004540880017, No Iterations 3
smoothSolver:  Solving for T, Initial residual = 0.02970136254, Final residual = 0.001295462436, No Iterations 3
GAMG:  Solving for p_rgh, Initial residual = 0.1604121136, Final residual = 0.001102649946, No Iterations 8
time step continuity errors : sum local = 0.1467620474, global = 0.004379887349, cumulative = 0.06851365863
--> FOAM Warning : 
    From function gaussConvectionScheme
    in file finiteVolume/convectionSchemes/gaussConvectionScheme/gaussConvectionScheme.H at line 123
    Reading "/home/ami/Desktop/virtauslaskenta/etukateenTehty/helyxVersion/system/fvSchemes.divSchemes.div(phi,omega)" at line 47
    Unbounded 'Gauss' div scheme used in steady-state solver, use 'bounded Gauss' to ensure boundedness.
    To remove this warning switch off 'warnUnboundedGauss' in "/opt/openfoam231/etc/controlDict"
smoothSolver:  Solving for omega, Initial residual = 0.01011350648, Final residual = 0.0008802967154, No Iterations 2
--> FOAM Warning : 
    From function gaussConvectionScheme
    in file finiteVolume/convectionSchemes/gaussConvectionScheme/gaussConvectionScheme.H at line 123
    Reading "/home/ami/Desktop/virtauslaskenta/etukateenTehty/helyxVersion/system/fvSchemes.divSchemes.div(phi,k)" at line 43
    Unbounded 'Gauss' div scheme used in steady-state solver, use 'bounded Gauss' to ensure boundedness.
    To remove this warning switch off 'warnUnboundedGauss' in "/opt/openfoam231/etc/controlDict"
smoothSolver:  Solving for k, Initial residual = 0.03589999335, Final residual = 0.002706690784, No Iterations 2
ExecutionTime = 3.05 s  ClockTime = 3 s

Time = 16

smoothSolver:  Solving for Ux, Initial residual = 0.02265795911, Final residual = 0.001162440129, No Iterations 3
smoothSolver:  Solving for Uy, Initial residual = 0.02608973131, Final residual = 0.001263225636, No Iterations 3
smoothSolver:  Solving for Uz, Initial residual = 0.08527284634, Final residual = 0.004248881944, No Iterations 3
smoothSolver:  Solving for T, Initial residual = 0.02758441422, Final residual = 0.001197969155, No Iterations 3
GAMG:  Solving for p_rgh, Initial residual = 0.2230667586, Final residual = 0.002121345742, No Iterations 8
time step continuity errors : sum local = 0.1967685165, global = 0.008353105334, cumulative = 0.07686676396
--> FOAM Warning : 
    From function gaussConvectionScheme
    in file finiteVolume/convectionSchemes/gaussConvectionScheme/gaussConvectionScheme.H at line 123
    Reading "/home/ami/Desktop/virtauslaskenta/etukateenTehty/helyxVersion/system/fvSchemes.divSchemes.div(phi,omega)" at line 47
    Unbounded 'Gauss' div scheme used in steady-state solver, use 'bounded Gauss' to ensure boundedness.
    To remove this warning switch off 'warnUnboundedGauss' in "/opt/openfoam231/etc/controlDict"
smoothSolver:  Solving for omega, Initial residual = 0.008123917792, Final residual = 0.0007561466529, No Iterations 2
--> FOAM Warning : 
    From function gaussConvectionScheme
    in file finiteVolume/convectionSchemes/gaussConvectionScheme/gaussConvectionScheme.H at line 123
    Reading "/home/ami/Desktop/virtauslaskenta/etukateenTehty/helyxVersion/system/fvSchemes.divSchemes.div(phi,k)" at line 43
    Unbounded 'Gauss' div scheme used in steady-state solver, use 'bounded Gauss' to ensure boundedness.
    To remove this warning switch off 'warnUnboundedGauss' in "/opt/openfoam231/etc/controlDict"
smoothSolver:  Solving for k, Initial residual = 0.03603345998, Final residual = 0.002856097278, No Iterations 2
ExecutionTime = 3.24 s  ClockTime = 3 s

Time = 17

smoothSolver:  Solving for Ux, Initial residual = 0.01808559801, Final residual = 0.0007822437731, No Iterations 3
smoothSolver:  Solving for Uy, Initial residual = 0.02139754164, Final residual = 0.0009597275368, No Iterations 3
smoothSolver:  Solving for Uz, Initial residual = 0.08053397311, Final residual = 0.003752653512, No Iterations 3
smoothSolver:  Solving for T, Initial residual = 0.02583934257, Final residual = 0.001151932621, No Iterations 3
GAMG:  Solving for p_rgh, Initial residual = 0.3195180841, Final residual = 0.002084552516, No Iterations 8
time step continuity errors : sum local = 0.1199599127, global = 0.002251869277, cumulative = 0.07911863324
--> FOAM Warning : 
    From function gaussConvectionScheme
    in file finiteVolume/convectionSchemes/gaussConvectionScheme/gaussConvectionScheme.H at line 123
    Reading "/home/ami/Desktop/virtauslaskenta/etukateenTehty/helyxVersion/system/fvSchemes.divSchemes.div(phi,omega)" at line 47
    Unbounded 'Gauss' div scheme used in steady-state solver, use 'bounded Gauss' to ensure boundedness.
    To remove this warning switch off 'warnUnboundedGauss' in "/opt/openfoam231/etc/controlDict"
smoothSolver:  Solving for omega, Initial residual = 0.007933975387, Final residual = 0.0007653530205, No Iterations 2
--> FOAM Warning : 
    From function gaussConvectionScheme
    in file finiteVolume/convectionSchemes/gaussConvectionScheme/gaussConvectionScheme.H at line 123
    Reading "/home/ami/Desktop/virtauslaskenta/etukateenTehty/helyxVersion/system/fvSchemes.divSchemes.div(phi,k)" at line 43
    Unbounded 'Gauss' div scheme used in steady-state solver, use 'bounded Gauss' to ensure boundedness.
    To remove this warning switch off 'warnUnboundedGauss' in "/opt/openfoam231/etc/controlDict"
smoothSolver:  Solving for k, Initial residual = 0.03424684969, Final residual = 0.002981000825, No Iterations 2
ExecutionTime = 3.42 s  ClockTime = 3 s

Time = 18

smoothSolver:  Solving for Ux, Initial residual = 0.0236742194, Final residual = 0.001077052662, No Iterations 3
smoothSolver:  Solving for Uy, Initial residual = 0.02375918586, Final residual = 0.001131674935, No Iterations 3
smoothSolver:  Solving for Uz, Initial residual = 0.07226097761, Final residual = 0.003248808871, No Iterations 3
smoothSolver:  Solving for T, Initial residual = 0.02400684062, Final residual = 0.001093407962, No Iterations 3
GAMG:  Solving for p_rgh, Initial residual = 0.2109237018, Final residual = 0.001313715164, No Iterations 8
time step continuity errors : sum local = 0.1085646448, global = -0.001827944047, cumulative = 0.07729068919
--> FOAM Warning : 
    From function gaussConvectionScheme
    in file finiteVolume/convectionSchemes/gaussConvectionScheme/gaussConvectionScheme.H at line 123
    Reading "/home/ami/Desktop/virtauslaskenta/etukateenTehty/helyxVersion/system/fvSchemes.divSchemes.div(phi,omega)" at line 47
    Unbounded 'Gauss' div scheme used in steady-state solver, use 'bounded Gauss' to ensure boundedness.
    To remove this warning switch off 'warnUnboundedGauss' in "/opt/openfoam231/etc/controlDict"
smoothSolver:  Solving for omega, Initial residual = 0.007409035898, Final residual = 0.0002660626612, No Iterations 3
--> FOAM Warning : 
    From function gaussConvectionScheme
    in file finiteVolume/convectionSchemes/gaussConvectionScheme/gaussConvectionScheme.H at line 123
    Reading "/home/ami/Desktop/virtauslaskenta/etukateenTehty/helyxVersion/system/fvSchemes.divSchemes.div(phi,k)" at line 43
    Unbounded 'Gauss' div scheme used in steady-state solver, use 'bounded Gauss' to ensure boundedness.
    To remove this warning switch off 'warnUnboundedGauss' in "/opt/openfoam231/etc/controlDict"
smoothSolver:  Solving for k, Initial residual = 0.03415641852, Final residual = 0.002964819263, No Iterations 2
ExecutionTime = 3.6 s  ClockTime = 4 s

Time = 19

smoothSolver:  Solving for Ux, Initial residual = 0.01606177026, Final residual = 0.0007885436936, No Iterations 3
smoothSolver:  Solving for Uy, Initial residual = 0.0160961125, Final residual = 0.0007037059602, No Iterations 3
smoothSolver:  Solving for Uz, Initial residual = 0.06457755684, Final residual = 0.002939512695, No Iterations 3
smoothSolver:  Solving for T, Initial residual = 0.02260172381, Final residual = 0.001008245007, No Iterations 3
GAMG:  Solving for p_rgh, Initial residual = 0.2886786534, Final residual = 0.002106738902, No Iterations 8
time step continuity errors : sum local = 0.1167124247, global = -0.004481241206, cumulative = 0.07280944799
--> FOAM Warning : 
    From function gaussConvectionScheme
    in file finiteVolume/convectionSchemes/gaussConvectionScheme/gaussConvectionScheme.H at line 123
    Reading "/home/ami/Desktop/virtauslaskenta/etukateenTehty/helyxVersion/system/fvSchemes.divSchemes.div(phi,omega)" at line 47
    Unbounded 'Gauss' div scheme used in steady-state solver, use 'bounded Gauss' to ensure boundedness.
    To remove this warning switch off 'warnUnboundedGauss' in "/opt/openfoam231/etc/controlDict"
smoothSolver:  Solving for omega, Initial residual = 0.006275206888, Final residual = 0.0002313778968, No Iterations 3
--> FOAM Warning : 
    From function gaussConvectionScheme
    in file finiteVolume/convectionSchemes/gaussConvectionScheme/gaussConvectionScheme.H at line 123
    Reading "/home/ami/Desktop/virtauslaskenta/etukateenTehty/helyxVersion/system/fvSchemes.divSchemes.div(phi,k)" at line 43
    Unbounded 'Gauss' div scheme used in steady-state solver, use 'bounded Gauss' to ensure boundedness.
    To remove this warning switch off 'warnUnboundedGauss' in "/opt/openfoam231/etc/controlDict"
smoothSolver:  Solving for k, Initial residual = 0.03144446506, Final residual = 0.002880972085, No Iterations 2
ExecutionTime = 3.79 s  ClockTime = 4 s

Time = 20

smoothSolver:  Solving for Ux, Initial residual = 0.01516980516, Final residual = 0.0006733262228, No Iterations 3
smoothSolver:  Solving for Uy, Initial residual = 0.01511653179, Final residual = 0.0007373240972, No Iterations 3
smoothSolver:  Solving for Uz, Initial residual = 0.0599563599, Final residual = 0.00274303845, No Iterations 3
smoothSolver:  Solving for T, Initial residual = 0.02131159982, Final residual = 0.0009520246968, No Iterations 3
GAMG:  Solving for p_rgh, Initial residual = 0.2399499458, Final residual = 0.001700361374, No Iterations 7
time step continuity errors : sum local = 0.1007865906, global = 0.00146276095, cumulative = 0.07427220894
--> FOAM Warning : 
    From function gaussConvectionScheme
    in file finiteVolume/convectionSchemes/gaussConvectionScheme/gaussConvectionScheme.H at line 123
    Reading "/home/ami/Desktop/virtauslaskenta/etukateenTehty/helyxVersion/system/fvSchemes.divSchemes.div(phi,omega)" at line 47
    Unbounded 'Gauss' div scheme used in steady-state solver, use 'bounded Gauss' to ensure boundedness.
    To remove this warning switch off 'warnUnboundedGauss' in "/opt/openfoam231/etc/controlDict"
smoothSolver:  Solving for omega, Initial residual = 0.005754981347, Final residual = 0.0002095577319, No Iterations 3
--> FOAM Warning : 
    From function gaussConvectionScheme
    in file finiteVolume/convectionSchemes/gaussConvectionScheme/gaussConvectionScheme.H at line 123
    Reading "/home/ami/Desktop/virtauslaskenta/etukateenTehty/helyxVersion/system/fvSchemes.divSchemes.div(phi,k)" at line 43
    Unbounded 'Gauss' div scheme used in steady-state solver, use 'bounded Gauss' to ensure boundedness.
    To remove this warning switch off 'warnUnboundedGauss' in "/opt/openfoam231/etc/controlDict"
smoothSolver:  Solving for k, Initial residual = 0.02945054117, Final residual = 0.002884892222, No Iterations 2
ExecutionTime = 3.97 s  ClockTime = 4 s

Time = 21

smoothSolver:  Solving for Ux, Initial residual = 0.01562185047, Final residual = 0.0007455633582, No Iterations 3
smoothSolver:  Solving for Uy, Initial residual = 0.01697466643, Final residual = 0.0008387623966, No Iterations 3
smoothSolver:  Solving for Uz, Initial residual = 0.05545685262, Final residual = 0.002645260157, No Iterations 3
smoothSolver:  Solving for T, Initial residual = 0.02035090883, Final residual = 0.0008898005316, No Iterations 3
GAMG:  Solving for p_rgh, Initial residual = 0.1903648264, Final residual = 0.00153832738, No Iterations 7
time step continuity errors : sum local = 0.1067302826, global = -0.0007516920061, cumulative = 0.07352051693
--> FOAM Warning : 
    From function gaussConvectionScheme
    in file finiteVolume/convectionSchemes/gaussConvectionScheme/gaussConvectionScheme.H at line 123
    Reading "/home/ami/Desktop/virtauslaskenta/etukateenTehty/helyxVersion/system/fvSchemes.divSchemes.div(phi,omega)" at line 47
    Unbounded 'Gauss' div scheme used in steady-state solver, use 'bounded Gauss' to ensure boundedness.
    To remove this warning switch off 'warnUnboundedGauss' in "/opt/openfoam231/etc/controlDict"
smoothSolver:  Solving for omega, Initial residual = 0.005175161096, Final residual = 0.0001881942969, No Iterations 3
--> FOAM Warning : 
    From function gaussConvectionScheme
    in file finiteVolume/convectionSchemes/gaussConvectionScheme/gaussConvectionScheme.H at line 123
    Reading "/home/ami/Desktop/virtauslaskenta/etukateenTehty/helyxVersion/system/fvSchemes.divSchemes.div(phi,k)" at line 43
    Unbounded 'Gauss' div scheme used in steady-state solver, use 'bounded Gauss' to ensure boundedness.
    To remove this warning switch off 'warnUnboundedGauss' in "/opt/openfoam231/etc/controlDict"
smoothSolver:  Solving for k, Initial residual = 0.03013670348, Final residual = 0.002957592338, No Iterations 2
ExecutionTime = 4.15 s  ClockTime = 4 s

Time = 22

smoothSolver:  Solving for Ux, Initial residual = 0.01212746327, Final residual = 0.0005891123415, No Iterations 3
smoothSolver:  Solving for Uy, Initial residual = 0.01491941265, Final residual = 0.0007071680162, No Iterations 3
smoothSolver:  Solving for Uz, Initial residual = 0.05258981417, Final residual = 0.002644842395, No Iterations 3
smoothSolver:  Solving for T, Initial residual = 0.01935841369, Final residual = 0.0008189670437, No Iterations 3
GAMG:  Solving for p_rgh, Initial residual = 0.2352956441, Final residual = 0.002085540106, No Iterations 7
time step continuity errors : sum local = 0.1084532267, global = -0.003159163059, cumulative = 0.07036135387
--> FOAM Warning : 
    From function gaussConvectionScheme
    in file finiteVolume/convectionSchemes/gaussConvectionScheme/gaussConvectionScheme.H at line 123
    Reading "/home/ami/Desktop/virtauslaskenta/etukateenTehty/helyxVersion/system/fvSchemes.divSchemes.div(phi,omega)" at line 47
    Unbounded 'Gauss' div scheme used in steady-state solver, use 'bounded Gauss' to ensure boundedness.
    To remove this warning switch off 'warnUnboundedGauss' in "/opt/openfoam231/etc/controlDict"
smoothSolver:  Solving for omega, Initial residual = 0.004698346351, Final residual = 0.0001702278862, No Iterations 3
--> FOAM Warning : 
    From function gaussConvectionScheme
    in file finiteVolume/convectionSchemes/gaussConvectionScheme/gaussConvectionScheme.H at line 123
    Reading "/home/ami/Desktop/virtauslaskenta/etukateenTehty/helyxVersion/system/fvSchemes.divSchemes.div(phi,k)" at line 43
    Unbounded 'Gauss' div scheme used in steady-state solver, use 'bounded Gauss' to ensure boundedness.
    To remove this warning switch off 'warnUnboundedGauss' in "/opt/openfoam231/etc/controlDict"
smoothSolver:  Solving for k, Initial residual = 0.03046133345, Final residual = 0.002976038094, No Iterations 2
ExecutionTime = 4.33 s  ClockTime = 4 s

Time = 23

smoothSolver:  Solving for Ux, Initial residual = 0.01196333189, Final residual = 0.0005459983851, No Iterations 3
smoothSolver:  Solving for Uy, Initial residual = 0.01275496101, Final residual = 0.0005882449465, No Iterations 3
smoothSolver:  Solving for Uz, Initial residual = 0.04945311737, Final residual = 0.002546469945, No Iterations 3
smoothSolver:  Solving for T, Initial residual = 0.01859797251, Final residual = 0.0007704660713, No Iterations 3
GAMG:  Solving for p_rgh, Initial residual = 0.2610955868, Final residual = 0.00223440602, No Iterations 6
time step continuity errors : sum local = 0.09735740577, global = 0.001677146903, cumulative = 0.07203850078
--> FOAM Warning : 
    From function gaussConvectionScheme
    in file finiteVolume/convectionSchemes/gaussConvectionScheme/gaussConvectionScheme.H at line 123
    Reading "/home/ami/Desktop/virtauslaskenta/etukateenTehty/helyxVersion/system/fvSchemes.divSchemes.div(phi,omega)" at line 47
    Unbounded 'Gauss' div scheme used in steady-state solver, use 'bounded Gauss' to ensure boundedness.
    To remove this warning switch off 'warnUnboundedGauss' in "/opt/openfoam231/etc/controlDict"
smoothSolver:  Solving for omega, Initial residual = 0.004505258077, Final residual = 0.0001601660465, No Iterations 3
--> FOAM Warning : 
    From function gaussConvectionScheme
    in file finiteVolume/convectionSchemes/gaussConvectionScheme/gaussConvectionScheme.H at line 123
    Reading "/home/ami/Desktop/virtauslaskenta/etukateenTehty/helyxVersion/system/fvSchemes.divSchemes.div(phi,k)" at line 43
    Unbounded 'Gauss' div scheme used in steady-state solver, use 'bounded Gauss' to ensure boundedness.
    To remove this warning switch off 'warnUnboundedGauss' in "/opt/openfoam231/etc/controlDict"
smoothSolver:  Solving for k, Initial residual = 0.03002811932, Final residual = 0.002911881201, No Iterations 2
ExecutionTime = 4.51 s  ClockTime = 5 s

Time = 24

smoothSolver:  Solving for Ux, Initial residual = 0.01177671391, Final residual = 0.0005451384933, No Iterations 3
smoothSolver:  Solving for Uy, Initial residual = 0.0114932731, Final residual = 0.0005278911156, No Iterations 3
smoothSolver:  Solving for Uz, Initial residual = 0.04551838789, Final residual = 0.002366646354, No Iterations 3
smoothSolver:  Solving for T, Initial residual = 0.01775826595, Final residual = 0.000739321288, No Iterations 3
GAMG:  Solving for p_rgh, Initial residual = 0.2163872033, Final residual = 0.00134034975, No Iterations 7
time step continuity errors : sum local = 0.06476805566, global = 0.0004226779422, cumulative = 0.07246117872
--> FOAM Warning : 
    From function gaussConvectionScheme
    in file finiteVolume/convectionSchemes/gaussConvectionScheme/gaussConvectionScheme.H at line 123
    Reading "/home/ami/Desktop/virtauslaskenta/etukateenTehty/helyxVersion/system/fvSchemes.divSchemes.div(phi,omega)" at line 47
    Unbounded 'Gauss' div scheme used in steady-state solver, use 'bounded Gauss' to ensure boundedness.
    To remove this warning switch off 'warnUnboundedGauss' in "/opt/openfoam231/etc/controlDict"
smoothSolver:  Solving for omega, Initial residual = 0.004238981903, Final residual = 0.0001499569931, No Iterations 3
--> FOAM Warning : 
    From function gaussConvectionScheme
    in file finiteVolume/convectionSchemes/gaussConvectionScheme/gaussConvectionScheme.H at line 123
    Reading "/home/ami/Desktop/virtauslaskenta/etukateenTehty/helyxVersion/system/fvSchemes.divSchemes.div(phi,k)" at line 43
    Unbounded 'Gauss' div scheme used in steady-state solver, use 'bounded Gauss' to ensure boundedness.
    To remove this warning switch off 'warnUnboundedGauss' in "/opt/openfoam231/etc/controlDict"
smoothSolver:  Solving for k, Initial residual = 0.02937793094, Final residual = 0.002812815204, No Iterations 2
ExecutionTime = 4.7 s  ClockTime = 5 s

Time = 25

smoothSolver:  Solving for Ux, Initial residual = 0.01058626118, Final residual = 0.0004718634829, No Iterations 3
smoothSolver:  Solving for Uy, Initial residual = 0.01030338288, Final residual = 0.0004622535087, No Iterations 3
smoothSolver:  Solving for Uz, Initial residual = 0.0427251871, Final residual = 0.002191818442, No Iterations 3
smoothSolver:  Solving for T, Initial residual = 0.01701141418, Final residual = 0.0007108964992, No Iterations 3
GAMG:  Solving for p_rgh, Initial residual = 0.262694433, Final residual = 0.001645733494, No Iterations 7
time step continuity errors : sum local = 0.06106515944, global = 0.0009288689542, cumulative = 0.07339004767
--> FOAM Warning : 
    From function gaussConvectionScheme
    in file finiteVolume/convectionSchemes/gaussConvectionScheme/gaussConvectionScheme.H at line 123
    Reading "/home/ami/Desktop/virtauslaskenta/etukateenTehty/helyxVersion/system/fvSchemes.divSchemes.div(phi,omega)" at line 47
    Unbounded 'Gauss' div scheme used in steady-state solver, use 'bounded Gauss' to ensure boundedness.
    To remove this warning switch off 'warnUnboundedGauss' in "/opt/openfoam231/etc/controlDict"
smoothSolver:  Solving for omega, Initial residual = 0.003974563199, Final residual = 0.0003924082985, No Iterations 2
--> FOAM Warning : 
    From function gaussConvectionScheme
    in file finiteVolume/convectionSchemes/gaussConvectionScheme/gaussConvectionScheme.H at line 123
    Reading "/home/ami/Desktop/virtauslaskenta/etukateenTehty/helyxVersion/system/fvSchemes.divSchemes.div(phi,k)" at line 43
    Unbounded 'Gauss' div scheme used in steady-state solver, use 'bounded Gauss' to ensure boundedness.
    To remove this warning switch off 'warnUnboundedGauss' in "/opt/openfoam231/etc/controlDict"
smoothSolver:  Solving for k, Initial residual = 0.02854813972, Final residual = 0.002707708748, No Iterations 2
ExecutionTime = 4.87 s  ClockTime = 5 s

Time = 26

smoothSolver:  Solving for Ux, Initial residual = 0.01045840357, Final residual = 0.0004662298342, No Iterations 3
smoothSolver:  Solving for Uy, Initial residual = 0.01023348428, Final residual = 0.0004901985474, No Iterations 3
smoothSolver:  Solving for Uz, Initial residual = 0.04101301461, Final residual = 0.002086508075, No Iterations 3
smoothSolver:  Solving for T, Initial residual = 0.01620627032, Final residual = 0.0006952280242, No Iterations 3
GAMG:  Solving for p_rgh, Initial residual = 0.2010273873, Final residual = 0.001686255301, No Iterations 6
time step continuity errors : sum local = 0.07978836785, global = -0.001233924213, cumulative = 0.07215612346
--> FOAM Warning : 
    From function gaussConvectionScheme
    in file finiteVolume/convectionSchemes/gaussConvectionScheme/gaussConvectionScheme.H at line 123
    Reading "/home/ami/Desktop/virtauslaskenta/etukateenTehty/helyxVersion/system/fvSchemes.divSchemes.div(phi,omega)" at line 47
    Unbounded 'Gauss' div scheme used in steady-state solver, use 'bounded Gauss' to ensure boundedness.
    To remove this warning switch off 'warnUnboundedGauss' in "/opt/openfoam231/etc/controlDict"
smoothSolver:  Solving for omega, Initial residual = 0.003789597641, Final residual = 0.0003644046591, No Iterations 2
--> FOAM Warning : 
    From function gaussConvectionScheme
    in file finiteVolume/convectionSchemes/gaussConvectionScheme/gaussConvectionScheme.H at line 123
    Reading "/home/ami/Desktop/virtauslaskenta/etukateenTehty/helyxVersion/system/fvSchemes.divSchemes.div(phi,k)" at line 43
    Unbounded 'Gauss' div scheme used in steady-state solver, use 'bounded Gauss' to ensure boundedness.
    To remove this warning switch off 'warnUnboundedGauss' in "/opt/openfoam231/etc/controlDict"
smoothSolver:  Solving for k, Initial residual = 0.02838697393, Final residual = 0.002601172666, No Iterations 2
ExecutionTime = 5.05 s  ClockTime = 5 s

Time = 27

smoothSolver:  Solving for Ux, Initial residual = 0.01052431021, Final residual = 0.000488310962, No Iterations 3
smoothSolver:  Solving for Uy, Initial residual = 0.01050896204, Final residual = 0.0005047737417, No Iterations 3
smoothSolver:  Solving for Uz, Initial residual = 0.03897074127, Final residual = 0.001968922836, No Iterations 3
smoothSolver:  Solving for T, Initial residual = 0.0155855002, Final residual = 0.0006529687741, No Iterations 3
GAMG:  Solving for p_rgh, Initial residual = 0.1844331171, Final residual = 0.001673900729, No Iterations 6
time step continuity errors : sum local = 0.08166735684, global = -0.0002867464271, cumulative = 0.07186937703
--> FOAM Warning : 
    From function gaussConvectionScheme
    in file finiteVolume/convectionSchemes/gaussConvectionScheme/gaussConvectionScheme.H at line 123
    Reading "/home/ami/Desktop/virtauslaskenta/etukateenTehty/helyxVersion/system/fvSchemes.divSchemes.div(phi,omega)" at line 47
    Unbounded 'Gauss' div scheme used in steady-state solver, use 'bounded Gauss' to ensure boundedness.
    To remove this warning switch off 'warnUnboundedGauss' in "/opt/openfoam231/etc/controlDict"
smoothSolver:  Solving for omega, Initial residual = 0.003596928283, Final residual = 0.000342973643, No Iterations 2
--> FOAM Warning : 
    From function gaussConvectionScheme
    in file finiteVolume/convectionSchemes/gaussConvectionScheme/gaussConvectionScheme.H at line 123
    Reading "/home/ami/Desktop/virtauslaskenta/etukateenTehty/helyxVersion/system/fvSchemes.divSchemes.div(phi,k)" at line 43
    Unbounded 'Gauss' div scheme used in steady-state solver, use 'bounded Gauss' to ensure boundedness.
    To remove this warning switch off 'warnUnboundedGauss' in "/opt/openfoam231/etc/controlDict"
smoothSolver:  Solving for k, Initial residual = 0.02869461347, Final residual = 0.002553073214, No Iterations 2
ExecutionTime = 5.23 s  ClockTime = 5 s

Time = 28

smoothSolver:  Solving for Ux, Initial residual = 0.01002958268, Final residual = 0.0004460567527, No Iterations 3
smoothSolver:  Solving for Uy, Initial residual = 0.009648091301, Final residual = 0.0004536727458, No Iterations 3
smoothSolver:  Solving for Uz, Initial residual = 0.0367645437, Final residual = 0.001835387899, No Iterations 3
smoothSolver:  Solving for T, Initial residual = 0.01502834046, Final residual = 0.0006199301045, No Iterations 3
GAMG:  Solving for p_rgh, Initial residual = 0.1974457508, Final residual = 0.001588479004, No Iterations 6
time step continuity errors : sum local = 0.06704848791, global = -0.0006650263011, cumulative = 0.07120435073
--> FOAM Warning : 
    From function gaussConvectionScheme
    in file finiteVolume/convectionSchemes/gaussConvectionScheme/gaussConvectionScheme.H at line 123
    Reading "/home/ami/Desktop/virtauslaskenta/etukateenTehty/helyxVersion/system/fvSchemes.divSchemes.div(phi,omega)" at line 47
    Unbounded 'Gauss' div scheme used in steady-state solver, use 'bounded Gauss' to ensure boundedness.
    To remove this warning switch off 'warnUnboundedGauss' in "/opt/openfoam231/etc/controlDict"
smoothSolver:  Solving for omega, Initial residual = 0.00347172035, Final residual = 0.0003331336484, No Iterations 2
--> FOAM Warning : 
    From function gaussConvectionScheme
    in file finiteVolume/convectionSchemes/gaussConvectionScheme/gaussConvectionScheme.H at line 123
    Reading "/home/ami/Desktop/virtauslaskenta/etukateenTehty/helyxVersion/system/fvSchemes.divSchemes.div(phi,k)" at line 43
    Unbounded 'Gauss' div scheme used in steady-state solver, use 'bounded Gauss' to ensure boundedness.
    To remove this warning switch off 'warnUnboundedGauss' in "/opt/openfoam231/etc/controlDict"
smoothSolver:  Solving for k, Initial residual = 0.02903908288, Final residual = 0.002506136803, No Iterations 2
ExecutionTime = 5.41 s  ClockTime = 6 s

Time = 29

smoothSolver:  Solving for Ux, Initial residual = 0.009505313005, Final residual = 0.0003853331533, No Iterations 3
smoothSolver:  Solving for Uy, Initial residual = 0.008453073804, Final residual = 0.000383006952, No Iterations 3
smoothSolver:  Solving for Uz, Initial residual = 0.03502533436, Final residual = 0.001736049778, No Iterations 3
smoothSolver:  Solving for T, Initial residual = 0.01446146743, Final residual = 0.0005817177848, No Iterations 3
GAMG:  Solving for p_rgh, Initial residual = 0.2164341407, Final residual = 0.001274532009, No Iterations 6
time step continuity errors : sum local = 0.04599893035, global = -0.0006575244303, cumulative = 0.0705468263
--> FOAM Warning : 
    From function gaussConvectionScheme
    in file finiteVolume/convectionSchemes/gaussConvectionScheme/gaussConvectionScheme.H at line 123
    Reading "/home/ami/Desktop/virtauslaskenta/etukateenTehty/helyxVersion/system/fvSchemes.divSchemes.div(phi,omega)" at line 47
    Unbounded 'Gauss' div scheme used in steady-state solver, use 'bounded Gauss' to ensure boundedness.
    To remove this warning switch off 'warnUnboundedGauss' in "/opt/openfoam231/etc/controlDict"
smoothSolver:  Solving for omega, Initial residual = 0.003374085844, Final residual = 0.0003247081295, No Iterations 2
--> FOAM Warning : 
    From function gaussConvectionScheme
    in file finiteVolume/convectionSchemes/gaussConvectionScheme/gaussConvectionScheme.H at line 123
    Reading "/home/ami/Desktop/virtauslaskenta/etukateenTehty/helyxVersion/system/fvSchemes.divSchemes.div(phi,k)" at line 43
    Unbounded 'Gauss' div scheme used in steady-state solver, use 'bounded Gauss' to ensure boundedness.
    To remove this warning switch off 'warnUnboundedGauss' in "/opt/openfoam231/etc/controlDict"
smoothSolver:  Solving for k, Initial residual = 0.0290644576, Final residual = 0.002431941184, No Iterations 2
ExecutionTime = 5.59 s  ClockTime = 6 s

Time = 30

smoothSolver:  Solving for Ux, Initial residual = 0.009197381206, Final residual = 0.0003573476617, No Iterations 3
smoothSolver:  Solving for Uy, Initial residual = 0.00783835924, Final residual = 0.0003407949381, No Iterations 3
smoothSolver:  Solving for Uz, Initial residual = 0.03364949266, Final residual = 0.001691811938, No Iterations 3
smoothSolver:  Solving for T, Initial residual = 0.01389352885, Final residual = 0.0005547918906, No Iterations 3
GAMG:  Solving for p_rgh, Initial residual = 0.1979048631, Final residual = 0.001303394785, No Iterations 6
time step continuity errors : sum local = 0.04710260851, global = -0.0002118452629, cumulative = 0.07033498104
--> FOAM Warning : 
    From function gaussConvectionScheme
    in file finiteVolume/convectionSchemes/gaussConvectionScheme/gaussConvectionScheme.H at line 123
    Reading "/home/ami/Desktop/virtauslaskenta/etukateenTehty/helyxVersion/system/fvSchemes.divSchemes.div(phi,omega)" at line 47
    Unbounded 'Gauss' div scheme used in steady-state solver, use 'bounded Gauss' to ensure boundedness.
    To remove this warning switch off 'warnUnboundedGauss' in "/opt/openfoam231/etc/controlDict"
smoothSolver:  Solving for omega, Initial residual = 0.003242685698, Final residual = 0.0003127039356, No Iterations 2
--> FOAM Warning : 
    From function gaussConvectionScheme
    in file finiteVolume/convectionSchemes/gaussConvectionScheme/gaussConvectionScheme.H at line 123
    Reading "/home/ami/Desktop/virtauslaskenta/etukateenTehty/helyxVersion/system/fvSchemes.divSchemes.div(phi,k)" at line 43
    Unbounded 'Gauss' div scheme used in steady-state solver, use 'bounded Gauss' to ensure boundedness.
    To remove this warning switch off 'warnUnboundedGauss' in "/opt/openfoam231/etc/controlDict"
smoothSolver:  Solving for k, Initial residual = 0.02893319006, Final residual = 0.002366150091, No Iterations 2
ExecutionTime = 5.78 s  ClockTime = 6 s

Time = 31

smoothSolver:  Solving for Ux, Initial residual = 0.009264708148, Final residual = 0.0003709157584, No Iterations 3
smoothSolver:  Solving for Uy, Initial residual = 0.007800739523, Final residual = 0.0003276472522, No Iterations 3
smoothSolver:  Solving for Uz, Initial residual = 0.03219446077, Final residual = 0.001642084367, No Iterations 3
smoothSolver:  Solving for T, Initial residual = 0.0135109475, Final residual = 0.0005134601878, No Iterations 3
GAMG:  Solving for p_rgh, Initial residual = 0.1663795214, Final residual = 0.0009860248828, No Iterations 6
time step continuity errors : sum local = 0.04032162042, global = 8.288983508e-05, cumulative = 0.07041787087
--> FOAM Warning : 
    From function gaussConvectionScheme
    in file finiteVolume/convectionSchemes/gaussConvectionScheme/gaussConvectionScheme.H at line 123
    Reading "/home/ami/Desktop/virtauslaskenta/etukateenTehty/helyxVersion/system/fvSchemes.divSchemes.div(phi,omega)" at line 47
    Unbounded 'Gauss' div scheme used in steady-state solver, use 'bounded Gauss' to ensure boundedness.
    To remove this warning switch off 'warnUnboundedGauss' in "/opt/openfoam231/etc/controlDict"
smoothSolver:  Solving for omega, Initial residual = 0.003121562006, Final residual = 0.0003014700003, No Iterations 2
--> FOAM Warning : 
    From function gaussConvectionScheme
    in file finiteVolume/convectionSchemes/gaussConvectionScheme/gaussConvectionScheme.H at line 123
    Reading "/home/ami/Desktop/virtauslaskenta/etukateenTehty/helyxVersion/system/fvSchemes.divSchemes.div(phi,k)" at line 43
    Unbounded 'Gauss' div scheme used in steady-state solver, use 'bounded Gauss' to ensure boundedness.
    To remove this warning switch off 'warnUnboundedGauss' in "/opt/openfoam231/etc/controlDict"
smoothSolver:  Solving for k, Initial residual = 0.02904521716, Final residual = 0.002300139531, No Iterations 2
ExecutionTime = 5.95 s  ClockTime = 6 s

Time = 32

smoothSolver:  Solving for Ux, Initial residual = 0.00941006282, Final residual = 0.0003872340461, No Iterations 3
smoothSolver:  Solving for Uy, Initial residual = 0.007870056737, Final residual = 0.0003330896198, No Iterations 3
smoothSolver:  Solving for Uz, Initial residual = 0.03095410679, Final residual = 0.001563947832, No Iterations 3
smoothSolver:  Solving for T, Initial residual = 0.01294322417, Final residual = 0.0005076451204, No Iterations 3
GAMG:  Solving for p_rgh, Initial residual = 0.148670421, Final residual = 0.001402040257, No Iterations 5
time step continuity errors : sum local = 0.06335982543, global = 4.04841835e-05, cumulative = 0.07045835506
--> FOAM Warning : 
    From function gaussConvectionScheme
    in file finiteVolume/convectionSchemes/gaussConvectionScheme/gaussConvectionScheme.H at line 123
    Reading "/home/ami/Desktop/virtauslaskenta/etukateenTehty/helyxVersion/system/fvSchemes.divSchemes.div(phi,omega)" at line 47
    Unbounded 'Gauss' div scheme used in steady-state solver, use 'bounded Gauss' to ensure boundedness.
    To remove this warning switch off 'warnUnboundedGauss' in "/opt/openfoam231/etc/controlDict"
smoothSolver:  Solving for omega, Initial residual = 0.003007544403, Final residual = 0.0002897169644, No Iterations 2
--> FOAM Warning : 
    From function gaussConvectionScheme
    in file finiteVolume/convectionSchemes/gaussConvectionScheme/gaussConvectionScheme.H at line 123
    Reading "/home/ami/Desktop/virtauslaskenta/etukateenTehty/helyxVersion/system/fvSchemes.divSchemes.div(phi,k)" at line 43
    Unbounded 'Gauss' div scheme used in steady-state solver, use 'bounded Gauss' to ensure boundedness.
    To remove this warning switch off 'warnUnboundedGauss' in "/opt/openfoam231/etc/controlDict"
smoothSolver:  Solving for k, Initial residual = 0.0293568899, Final residual = 0.002240662234, No Iterations 2
ExecutionTime = 6.13 s  ClockTime = 6 s

Time = 33

smoothSolver:  Solving for Ux, Initial residual = 0.009258893973, Final residual = 0.0003745299977, No Iterations 3
smoothSolver:  Solving for Uy, Initial residual = 0.007747898433, Final residual = 0.0003323361694, No Iterations 3
smoothSolver:  Solving for Uz, Initial residual = 0.03009684565, Final residual = 0.001497556722, No Iterations 3
smoothSolver:  Solving for T, Initial residual = 0.01265749258, Final residual = 0.0004849639288, No Iterations 3
GAMG:  Solving for p_rgh, Initial residual = 0.1412407749, Final residual = 0.00082168091, No Iterations 6
time step continuity errors : sum local = 0.03757679102, global = -0.0005341824059, cumulative = 0.06992417265
--> FOAM Warning : 
    From function gaussConvectionScheme
    in file finiteVolume/convectionSchemes/gaussConvectionScheme/gaussConvectionScheme.H at line 123
    Reading "/home/ami/Desktop/virtauslaskenta/etukateenTehty/helyxVersion/system/fvSchemes.divSchemes.div(phi,omega)" at line 47
    Unbounded 'Gauss' div scheme used in steady-state solver, use 'bounded Gauss' to ensure boundedness.
    To remove this warning switch off 'warnUnboundedGauss' in "/opt/openfoam231/etc/controlDict"
smoothSolver:  Solving for omega, Initial residual = 0.002887471558, Final residual = 0.0002794274994, No Iterations 2
--> FOAM Warning : 
    From function gaussConvectionScheme
    in file finiteVolume/convectionSchemes/gaussConvectionScheme/gaussConvectionScheme.H at line 123
    Reading "/home/ami/Desktop/virtauslaskenta/etukateenTehty/helyxVersion/system/fvSchemes.divSchemes.div(phi,k)" at line 43
    Unbounded 'Gauss' div scheme used in steady-state solver, use 'bounded Gauss' to ensure boundedness.
    To remove this warning switch off 'warnUnboundedGauss' in "/opt/openfoam231/etc/controlDict"
smoothSolver:  Solving for k, Initial residual = 0.02958026212, Final residual = 0.002185958756, No Iterations 2
ExecutionTime = 6.31 s  ClockTime = 6 s

Time = 34

smoothSolver:  Solving for Ux, Initial residual = 0.008881578265, Final residual = 0.0003412604509, No Iterations 3
smoothSolver:  Solving for Uy, Initial residual = 0.007228823782, Final residual = 0.0003115155256, No Iterations 3
smoothSolver:  Solving for Uz, Initial residual = 0.02944628282, Final residual = 0.001456401951, No Iterations 3
smoothSolver:  Solving for T, Initial residual = 0.01216204113, Final residual = 0.000465856379, No Iterations 3
GAMG:  Solving for p_rgh, Initial residual = 0.1390551815, Final residual = 0.001350565048, No Iterations 5
time step continuity errors : sum local = 0.05883605892, global = -0.0001150990187, cumulative = 0.06980907363
--> FOAM Warning : 
    From function gaussConvectionScheme
    in file finiteVolume/convectionSchemes/gaussConvectionScheme/gaussConvectionScheme.H at line 123
    Reading "/home/ami/Desktop/virtauslaskenta/etukateenTehty/helyxVersion/system/fvSchemes.divSchemes.div(phi,omega)" at line 47
    Unbounded 'Gauss' div scheme used in steady-state solver, use 'bounded Gauss' to ensure boundedness.
    To remove this warning switch off 'warnUnboundedGauss' in "/opt/openfoam231/etc/controlDict"
smoothSolver:  Solving for omega, Initial residual = 0.002797585608, Final residual = 0.0002719960222, No Iterations 2
--> FOAM Warning : 
    From function gaussConvectionScheme
    in file finiteVolume/convectionSchemes/gaussConvectionScheme/gaussConvectionScheme.H at line 123
    Reading "/home/ami/Desktop/virtauslaskenta/etukateenTehty/helyxVersion/system/fvSchemes.divSchemes.div(phi,k)" at line 43
    Unbounded 'Gauss' div scheme used in steady-state solver, use 'bounded Gauss' to ensure boundedness.
    To remove this warning switch off 'warnUnboundedGauss' in "/opt/openfoam231/etc/controlDict"
smoothSolver:  Solving for k, Initial residual = 0.0295953136, Final residual = 0.002126749987, No Iterations 2
ExecutionTime = 6.48 s  ClockTime = 7 s

Time = 35

smoothSolver:  Solving for Ux, Initial residual = 0.008573887079, Final residual = 0.0008356636228, No Iterations 2
smoothSolver:  Solving for Uy, Initial residual = 0.006647769312, Final residual = 0.0002852813479, No Iterations 3
smoothSolver:  Solving for Uz, Initial residual = 0.02876343177, Final residual = 0.001427002492, No Iterations 3
smoothSolver:  Solving for T, Initial residual = 0.01185162927, Final residual = 0.0004509145338, No Iterations 3
GAMG:  Solving for p_rgh, Initial residual = 0.133715102, Final residual = 0.001163979233, No Iterations 5
time step continuity errors : sum local = 0.04873139412, global = -0.001801093735, cumulative = 0.0680079799
--> FOAM Warning : 
    From function gaussConvectionScheme
    in file finiteVolume/convectionSchemes/gaussConvectionScheme/gaussConvectionScheme.H at line 123
    Reading "/home/ami/Desktop/virtauslaskenta/etukateenTehty/helyxVersion/system/fvSchemes.divSchemes.div(phi,omega)" at line 47
    Unbounded 'Gauss' div scheme used in steady-state solver, use 'bounded Gauss' to ensure boundedness.
    To remove this warning switch off 'warnUnboundedGauss' in "/opt/openfoam231/etc/controlDict"
smoothSolver:  Solving for omega, Initial residual = 0.002684666552, Final residual = 0.0002623176608, No Iterations 2
--> FOAM Warning : 
    From function gaussConvectionScheme
    in file finiteVolume/convectionSchemes/gaussConvectionScheme/gaussConvectionScheme.H at line 123
    Reading "/home/ami/Desktop/virtauslaskenta/etukateenTehty/helyxVersion/system/fvSchemes.divSchemes.div(phi,k)" at line 43
    Unbounded 'Gauss' div scheme used in steady-state solver, use 'bounded Gauss' to ensure boundedness.
    To remove this warning switch off 'warnUnboundedGauss' in "/opt/openfoam231/etc/controlDict"
smoothSolver:  Solving for k, Initial residual = 0.02928685873, Final residual = 0.002061284628, No Iterations 2
ExecutionTime = 6.66 s  ClockTime = 7 s

Time = 36

smoothSolver:  Solving for Ux, Initial residual = 0.008605986406, Final residual = 0.0008479406665, No Iterations 2
smoothSolver:  Solving for Uy, Initial residual = 0.00633407929, Final residual = 0.0002633060898, No Iterations 3
smoothSolver:  Solving for Uz, Initial residual = 0.02745629499, Final residual = 0.001377300005, No Iterations 3
smoothSolver:  Solving for T, Initial residual = 0.01149269168, Final residual = 0.0004380226456, No Iterations 3
GAMG:  Solving for p_rgh, Initial residual = 0.1232075965, Final residual = 0.00113613912, No Iterations 5
time step continuity errors : sum local = 0.0484818018, global = -0.001678821471, cumulative = 0.06632915843
--> FOAM Warning : 
    From function gaussConvectionScheme
    in file finiteVolume/convectionSchemes/gaussConvectionScheme/gaussConvectionScheme.H at line 123
    Reading "/home/ami/Desktop/virtauslaskenta/etukateenTehty/helyxVersion/system/fvSchemes.divSchemes.div(phi,omega)" at line 47
    Unbounded 'Gauss' div scheme used in steady-state solver, use 'bounded Gauss' to ensure boundedness.
    To remove this warning switch off 'warnUnboundedGauss' in "/opt/openfoam231/etc/controlDict"
smoothSolver:  Solving for omega, Initial residual = 0.002565527625, Final residual = 0.0002511315651, No Iterations 2
--> FOAM Warning : 
    From function gaussConvectionScheme
    in file finiteVolume/convectionSchemes/gaussConvectionScheme/gaussConvectionScheme.H at line 123
    Reading "/home/ami/Desktop/virtauslaskenta/etukateenTehty/helyxVersion/system/fvSchemes.divSchemes.div(phi,k)" at line 43
    Unbounded 'Gauss' div scheme used in steady-state solver, use 'bounded Gauss' to ensure boundedness.
    To remove this warning switch off 'warnUnboundedGauss' in "/opt/openfoam231/etc/controlDict"
smoothSolver:  Solving for k, Initial residual = 0.02888241488, Final residual = 0.001992151005, No Iterations 2
ExecutionTime = 6.83 s  ClockTime = 7 s

Time = 37

smoothSolver:  Solving for Ux, Initial residual = 0.008697536846, Final residual = 0.0003392200102, No Iterations 3
smoothSolver:  Solving for Uy, Initial residual = 0.006188852687, Final residual = 0.0002531162735, No Iterations 3
smoothSolver:  Solving for Uz, Initial residual = 0.02608133695, Final residual = 0.001329190754, No Iterations 3
smoothSolver:  Solving for T, Initial residual = 0.01115266498, Final residual = 0.000414181796, No Iterations 3
GAMG:  Solving for p_rgh, Initial residual = 0.1137415642, Final residual = 0.0009372111407, No Iterations 5
time step continuity errors : sum local = 0.04213399458, global = -0.0009585941952, cumulative = 0.06537056423
--> FOAM Warning : 
    From function gaussConvectionScheme
    in file finiteVolume/convectionSchemes/gaussConvectionScheme/gaussConvectionScheme.H at line 123
    Reading "/home/ami/Desktop/virtauslaskenta/etukateenTehty/helyxVersion/system/fvSchemes.divSchemes.div(phi,omega)" at line 47
    Unbounded 'Gauss' div scheme used in steady-state solver, use 'bounded Gauss' to ensure boundedness.
    To remove this warning switch off 'warnUnboundedGauss' in "/opt/openfoam231/etc/controlDict"
smoothSolver:  Solving for omega, Initial residual = 0.002483070229, Final residual = 0.0002413700506, No Iterations 2
--> FOAM Warning : 
    From function gaussConvectionScheme
    in file finiteVolume/convectionSchemes/gaussConvectionScheme/gaussConvectionScheme.H at line 123
    Reading "/home/ami/Desktop/virtauslaskenta/etukateenTehty/helyxVersion/system/fvSchemes.divSchemes.div(phi,k)" at line 43
    Unbounded 'Gauss' div scheme used in steady-state solver, use 'bounded Gauss' to ensure boundedness.
    To remove this warning switch off 'warnUnboundedGauss' in "/opt/openfoam231/etc/controlDict"
smoothSolver:  Solving for k, Initial residual = 0.02864438978, Final residual = 0.001932655836, No Iterations 2
ExecutionTime = 7.01 s  ClockTime = 7 s

Time = 38

smoothSolver:  Solving for Ux, Initial residual = 0.00852973816, Final residual = 0.0008477071881, No Iterations 2
smoothSolver:  Solving for Uy, Initial residual = 0.006128157974, Final residual = 0.0002539565424, No Iterations 3
smoothSolver:  Solving for Uz, Initial residual = 0.02564591036, Final residual = 0.001311609706, No Iterations 3
smoothSolver:  Solving for T, Initial residual = 0.01080685401, Final residual = 0.0004017750257, No Iterations 3
GAMG:  Solving for p_rgh, Initial residual = 0.1069747401, Final residual = 0.0008201814858, No Iterations 5
time step continuity errors : sum local = 0.03793291108, global = -0.0004640984195, cumulative = 0.06490646581
--> FOAM Warning : 
    From function gaussConvectionScheme
    in file finiteVolume/convectionSchemes/gaussConvectionScheme/gaussConvectionScheme.H at line 123
    Reading "/home/ami/Desktop/virtauslaskenta/etukateenTehty/helyxVersion/system/fvSchemes.divSchemes.div(phi,omega)" at line 47
    Unbounded 'Gauss' div scheme used in steady-state solver, use 'bounded Gauss' to ensure boundedness.
    To remove this warning switch off 'warnUnboundedGauss' in "/opt/openfoam231/etc/controlDict"
smoothSolver:  Solving for omega, Initial residual = 0.002398511955, Final residual = 0.0002310395142, No Iterations 2
--> FOAM Warning : 
    From function gaussConvectionScheme
    in file finiteVolume/convectionSchemes/gaussConvectionScheme/gaussConvectionScheme.H at line 123
    Reading "/home/ami/Desktop/virtauslaskenta/etukateenTehty/helyxVersion/system/fvSchemes.divSchemes.div(phi,k)" at line 43
    Unbounded 'Gauss' div scheme used in steady-state solver, use 'bounded Gauss' to ensure boundedness.
    To remove this warning switch off 'warnUnboundedGauss' in "/opt/openfoam231/etc/controlDict"
smoothSolver:  Solving for k, Initial residual = 0.02816841437, Final residual = 0.001866653888, No Iterations 2
ExecutionTime = 7.18 s  ClockTime = 7 s

Time = 39

smoothSolver:  Solving for Ux, Initial residual = 0.008254187225, Final residual = 0.000807499404, No Iterations 2
smoothSolver:  Solving for Uy, Initial residual = 0.00592698491, Final residual = 0.0002501632091, No Iterations 3
smoothSolver:  Solving for Uz, Initial residual = 0.0254141399, Final residual = 0.001297521063, No Iterations 3
smoothSolver:  Solving for T, Initial residual = 0.01049703196, Final residual = 0.001046753552, No Iterations 2
GAMG:  Solving for p_rgh, Initial residual = 0.1016333333, Final residual = 0.0008666425211, No Iterations 5
time step continuity errors : sum local = 0.0400230537, global = -0.0005982457606, cumulative = 0.06430822005
--> FOAM Warning : 
    From function gaussConvectionScheme
    in file finiteVolume/convectionSchemes/gaussConvectionScheme/gaussConvectionScheme.H at line 123
    Reading "/home/ami/Desktop/virtauslaskenta/etukateenTehty/helyxVersion/system/fvSchemes.divSchemes.div(phi,omega)" at line 47
    Unbounded 'Gauss' div scheme used in steady-state solver, use 'bounded Gauss' to ensure boundedness.
    To remove this warning switch off 'warnUnboundedGauss' in "/opt/openfoam231/etc/controlDict"
smoothSolver:  Solving for omega, Initial residual = 0.002329461897, Final residual = 0.0002218842667, No Iterations 2
--> FOAM Warning : 
    From function gaussConvectionScheme
    in file finiteVolume/convectionSchemes/gaussConvectionScheme/gaussConvectionScheme.H at line 123
    Reading "/home/ami/Desktop/virtauslaskenta/etukateenTehty/helyxVersion/system/fvSchemes.divSchemes.div(phi,k)" at line 43
    Unbounded 'Gauss' div scheme used in steady-state solver, use 'bounded Gauss' to ensure boundedness.
    To remove this warning switch off 'warnUnboundedGauss' in "/opt/openfoam231/etc/controlDict"
smoothSolver:  Solving for k, Initial residual = 0.02765194311, Final residual = 0.001810299824, No Iterations 2
ExecutionTime = 7.35 s  ClockTime = 8 s

Time = 40

smoothSolver:  Solving for Ux, Initial residual = 0.007913945379, Final residual = 0.0007612721647, No Iterations 2
smoothSolver:  Solving for Uy, Initial residual = 0.00554223361, Final residual = 0.0002357827909, No Iterations 3
smoothSolver:  Solving for Uz, Initial residual = 0.02487589162, Final residual = 0.001270411773, No Iterations 3
smoothSolver:  Solving for T, Initial residual = 0.01021197645, Final residual = 0.001020789895, No Iterations 2
GAMG:  Solving for p_rgh, Initial residual = 0.09759401273, Final residual = 0.0007898577999, No Iterations 5
time step continuity errors : sum local = 0.03573084155, global = -0.0004866419103, cumulative = 0.06382157814
--> FOAM Warning : 
    From function gaussConvectionScheme
    in file finiteVolume/convectionSchemes/gaussConvectionScheme/gaussConvectionScheme.H at line 123
    Reading "/home/ami/Desktop/virtauslaskenta/etukateenTehty/helyxVersion/system/fvSchemes.divSchemes.div(phi,omega)" at line 47
    Unbounded 'Gauss' div scheme used in steady-state solver, use 'bounded Gauss' to ensure boundedness.
    To remove this warning switch off 'warnUnboundedGauss' in "/opt/openfoam231/etc/controlDict"
smoothSolver:  Solving for omega, Initial residual = 0.002252171144, Final residual = 0.0002130218089, No Iterations 2
--> FOAM Warning : 
    From function gaussConvectionScheme
    in file finiteVolume/convectionSchemes/gaussConvectionScheme/gaussConvectionScheme.H at line 123
    Reading "/home/ami/Desktop/virtauslaskenta/etukateenTehty/helyxVersion/system/fvSchemes.divSchemes.div(phi,k)" at line 43
    Unbounded 'Gauss' div scheme used in steady-state solver, use 'bounded Gauss' to ensure boundedness.
    To remove this warning switch off 'warnUnboundedGauss' in "/opt/openfoam231/etc/controlDict"
smoothSolver:  Solving for k, Initial residual = 0.02716887532, Final residual = 0.001760598205, No Iterations 2
ExecutionTime = 7.53 s  ClockTime = 8 s

Time = 41

[...]
    To remove this warning switch off 'warnUnboundedGauss' in "/opt/openfoam231/etc/controlDict"
smoothSolver:  Solving for k, Initial residual = 1.143678084e-05, Final residual = 9.711617436e-07, No Iterations 2
ExecutionTime = 26.61 s  ClockTime = 28 s

Time = 152

smoothSolver:  Solving for Ux, Initial residual = 2.006736589e-06, Final residual = 6.450804453e-07, No Iterations 1
smoothSolver:  Solving for Uy, Initial residual = 9.791411872e-07, Final residual = 3.081028785e-07, No Iterations 1
smoothSolver:  Solving for Uz, Initial residual = 4.783457002e-06, Final residual = 4.940401172e-07, No Iterations 2
smoothSolver:  Solving for T, Initial residual = 0.001571491362, Final residual = 0.0001489806032, No Iterations 2
GAMG:  Solving for p_rgh, Initial residual = 1.753197064e-05, Final residual = 1.526794543e-07, No Iterations 4
time step continuity errors : sum local = 4.972838253e-06, global = 2.083336187e-08, cumulative = 0.06472695099
--> FOAM Warning : 
    From function gaussConvectionScheme
    in file finiteVolume/convectionSchemes/gaussConvectionScheme/gaussConvectionScheme.H at line 123
    Reading "/home/ami/Desktop/virtauslaskenta/etukateenTehty/helyxVersion/system/fvSchemes.divSchemes.div(phi,omega)" at line 47
    Unbounded 'Gauss' div scheme used in steady-state solver, use 'bounded Gauss' to ensure boundedness.
    To remove this warning switch off 'warnUnboundedGauss' in "/opt/openfoam231/etc/controlDict"
smoothSolver:  Solving for omega, Initial residual = 8.853407335e-07, Final residual = 2.618819728e-07, No Iterations 1
--> FOAM Warning : 
    From function gaussConvectionScheme
    in file finiteVolume/convectionSchemes/gaussConvectionScheme/gaussConvectionScheme.H at line 123
    Reading "/home/ami/Desktop/virtauslaskenta/etukateenTehty/helyxVersion/system/fvSchemes.divSchemes.div(phi,k)" at line 43
    Unbounded 'Gauss' div scheme used in steady-state solver, use 'bounded Gauss' to ensure boundedness.
    To remove this warning switch off 'warnUnboundedGauss' in "/opt/openfoam231/etc/controlDict"
smoothSolver:  Solving for k, Initial residual = 1.025215618e-05, Final residual = 8.726890004e-07, No Iterations 2
ExecutionTime = 26.77 s  ClockTime = 29 s

Time = 153

smoothSolver:  Solving for Ux, Initial residual = 1.839437949e-06, Final residual = 5.940468708e-07, No Iterations 1
smoothSolver:  Solving for Uy, Initial residual = 9.06641452e-07, Final residual = 2.857536905e-07, No Iterations 1
smoothSolver:  Solving for Uz, Initial residual = 4.427732177e-06, Final residual = 4.556052974e-07, No Iterations 2
smoothSolver:  Solving for T, Initial residual = 0.001489521647, Final residual = 0.0001393914298, No Iterations 2
GAMG:  Solving for p_rgh, Initial residual = 1.588843144e-05, Final residual = 1.255964962e-07, No Iterations 4
time step continuity errors : sum local = 4.090732502e-06, global = -1.167572363e-07, cumulative = 0.06472683423
--> FOAM Warning : 
    From function gaussConvectionScheme
    in file finiteVolume/convectionSchemes/gaussConvectionScheme/gaussConvectionScheme.H at line 123
    Reading "/home/ami/Desktop/virtauslaskenta/etukateenTehty/helyxVersion/system/fvSchemes.divSchemes.div(phi,omega)" at line 47
    Unbounded 'Gauss' div scheme used in steady-state solver, use 'bounded Gauss' to ensure boundedness.
    To remove this warning switch off 'warnUnboundedGauss' in "/opt/openfoam231/etc/controlDict"
smoothSolver:  Solving for omega, Initial residual = 8.037543639e-07, Final residual = 2.382993894e-07, No Iterations 1
--> FOAM Warning : 
    From function gaussConvectionScheme
    in file finiteVolume/convectionSchemes/gaussConvectionScheme/gaussConvectionScheme.H at line 123
    Reading "/home/ami/Desktop/virtauslaskenta/etukateenTehty/helyxVersion/system/fvSchemes.divSchemes.div(phi,k)" at line 43
    Unbounded 'Gauss' div scheme used in steady-state solver, use 'bounded Gauss' to ensure boundedness.
    To remove this warning switch off 'warnUnboundedGauss' in "/opt/openfoam231/etc/controlDict"
smoothSolver:  Solving for k, Initial residual = 9.189273302e-06, Final residual = 7.837139069e-07, No Iterations 2
ExecutionTime = 26.93 s  ClockTime = 29 s

Time = 154

smoothSolver:  Solving for Ux, Initial residual = 1.685534554e-06, Final residual = 5.465023889e-07, No Iterations 1
smoothSolver:  Solving for Uy, Initial residual = 8.256361558e-07, Final residual = 2.606048338e-07, No Iterations 1
smoothSolver:  Solving for Uz, Initial residual = 4.080765497e-06, Final residual = 4.202332414e-07, No Iterations 2
smoothSolver:  Solving for T, Initial residual = 0.001421385478, Final residual = 0.0001311525817, No Iterations 2
GAMG:  Solving for p_rgh, Initial residual = 1.452460448e-05, Final residual = 1.08904447e-07, No Iterations 4
time step continuity errors : sum local = 3.547065253e-06, global = -1.381274856e-07, cumulative = 0.0647266961
--> FOAM Warning : 
    From function gaussConvectionScheme
    in file finiteVolume/convectionSchemes/gaussConvectionScheme/gaussConvectionScheme.H at line 123
    Reading "/home/ami/Desktop/virtauslaskenta/etukateenTehty/helyxVersion/system/fvSchemes.divSchemes.div(phi,omega)" at line 47
    Unbounded 'Gauss' div scheme used in steady-state solver, use 'bounded Gauss' to ensure boundedness.
    To remove this warning switch off 'warnUnboundedGauss' in "/opt/openfoam231/etc/controlDict"
smoothSolver:  Solving for omega, Initial residual = 7.301944125e-07, Final residual = 2.171010982e-07, No Iterations 1
--> FOAM Warning : 
    From function gaussConvectionScheme
    in file finiteVolume/convectionSchemes/gaussConvectionScheme/gaussConvectionScheme.H at line 123
    Reading "/home/ami/Desktop/virtauslaskenta/etukateenTehty/helyxVersion/system/fvSchemes.divSchemes.div(phi,k)" at line 43
    Unbounded 'Gauss' div scheme used in steady-state solver, use 'bounded Gauss' to ensure boundedness.
    To remove this warning switch off 'warnUnboundedGauss' in "/opt/openfoam231/etc/controlDict"
smoothSolver:  Solving for k, Initial residual = 8.234270805e-06, Final residual = 7.034818554e-07, No Iterations 2
ExecutionTime = 27.08 s  ClockTime = 29 s

Time = 155

smoothSolver:  Solving for Ux, Initial residual = 1.544496418e-06, Final residual = 5.020261586e-07, No Iterations 1
smoothSolver:  Solving for Uy, Initial residual = 7.449606268e-07, Final residual = 2.352728416e-07, No Iterations 1
smoothSolver:  Solving for Uz, Initial residual = 3.744326538e-06, Final residual = 3.870439616e-07, No Iterations 2
smoothSolver:  Solving for T, Initial residual = 0.001347074888, Final residual = 0.0001236273441, No Iterations 2
GAMG:  Solving for p_rgh, Initial residual = 1.33247562e-05, Final residual = 9.418812283e-08, No Iterations 4
time step continuity errors : sum local = 3.067749352e-06, global = -7.903129312e-08, cumulative = 0.06472661707
--> FOAM Warning : 
    From function gaussConvectionScheme
    in file finiteVolume/convectionSchemes/gaussConvectionScheme/gaussConvectionScheme.H at line 123
    Reading "/home/ami/Desktop/virtauslaskenta/etukateenTehty/helyxVersion/system/fvSchemes.divSchemes.div(phi,omega)" at line 47
    Unbounded 'Gauss' div scheme used in steady-state solver, use 'bounded Gauss' to ensure boundedness.
    To remove this warning switch off 'warnUnboundedGauss' in "/opt/openfoam231/etc/controlDict"
smoothSolver:  Solving for omega, Initial residual = 6.6376302e-07, Final residual = 1.979575342e-07, No Iterations 1
--> FOAM Warning : 
    From function gaussConvectionScheme
    in file finiteVolume/convectionSchemes/gaussConvectionScheme/gaussConvectionScheme.H at line 123
    Reading "/home/ami/Desktop/virtauslaskenta/etukateenTehty/helyxVersion/system/fvSchemes.divSchemes.div(phi,k)" at line 43
    Unbounded 'Gauss' div scheme used in steady-state solver, use 'bounded Gauss' to ensure boundedness.
    To remove this warning switch off 'warnUnboundedGauss' in "/opt/openfoam231/etc/controlDict"
smoothSolver:  Solving for k, Initial residual = 7.375108331e-06, Final residual = 6.311464264e-07, No Iterations 2
ExecutionTime = 27.24 s  ClockTime = 29 s

Time = 156

smoothSolver:  Solving for Ux, Initial residual = 1.414296449e-06, Final residual = 4.608164148e-07, No Iterations 1
smoothSolver:  Solving for Uy, Initial residual = 6.736441237e-07, Final residual = 2.12409427e-07, No Iterations 1
smoothSolver:  Solving for Uz, Initial residual = 3.417866363e-06, Final residual = 9.841281155e-07, No Iterations 1
smoothSolver:  Solving for T, Initial residual = 0.001280411692, Final residual = 0.0001157502619, No Iterations 2
GAMG:  Solving for p_rgh, Initial residual = 1.227411815e-05, Final residual = 9.09644834e-08, No Iterations 4
time step continuity errors : sum local = 2.96275514e-06, global = -3.332554072e-08, cumulative = 0.06472658375
--> FOAM Warning : 
    From function gaussConvectionScheme
    in file finiteVolume/convectionSchemes/gaussConvectionScheme/gaussConvectionScheme.H at line 123
    Reading "/home/ami/Desktop/virtauslaskenta/etukateenTehty/helyxVersion/system/fvSchemes.divSchemes.div(phi,omega)" at line 47
    Unbounded 'Gauss' div scheme used in steady-state solver, use 'bounded Gauss' to ensure boundedness.
    To remove this warning switch off 'warnUnboundedGauss' in "/opt/openfoam231/etc/controlDict"
smoothSolver:  Solving for omega, Initial residual = 6.039580459e-07, Final residual = 1.808170883e-07, No Iterations 1
--> FOAM Warning : 
    From function gaussConvectionScheme
    in file finiteVolume/convectionSchemes/gaussConvectionScheme/gaussConvectionScheme.H at line 123
    Reading "/home/ami/Desktop/virtauslaskenta/etukateenTehty/helyxVersion/system/fvSchemes.divSchemes.div(phi,k)" at line 43
    Unbounded 'Gauss' div scheme used in steady-state solver, use 'bounded Gauss' to ensure boundedness.
    To remove this warning switch off 'warnUnboundedGauss' in "/opt/openfoam231/etc/controlDict"
smoothSolver:  Solving for k, Initial residual = 6.600735444e-06, Final residual = 5.657346547e-07, No Iterations 2
ExecutionTime = 27.4 s  ClockTime = 29 s

Time = 157

smoothSolver:  Solving for Ux, Initial residual = 1.293787737e-06, Final residual = 4.223752878e-07, No Iterations 1
smoothSolver:  Solving for Uy, Initial residual = 6.060605883e-07, Final residual = 1.905459748e-07, No Iterations 1
smoothSolver:  Solving for Uz, Initial residual = 3.332443426e-06, Final residual = 9.964740067e-07, No Iterations 1
smoothSolver:  Solving for T, Initial residual = 0.001207185215, Final residual = 0.0001077000711, No Iterations 2
GAMG:  Solving for p_rgh, Initial residual = 1.116192355e-05, Final residual = 8.909602093e-08, No Iterations 4
time step continuity errors : sum local = 2.901899798e-06, global = -6.476432142e-09, cumulative = 0.06472657727
--> FOAM Warning : 
    From function gaussConvectionScheme
    in file finiteVolume/convectionSchemes/gaussConvectionScheme/gaussConvectionScheme.H at line 123
    Reading "/home/ami/Desktop/virtauslaskenta/etukateenTehty/helyxVersion/system/fvSchemes.divSchemes.div(phi,omega)" at line 47
    Unbounded 'Gauss' div scheme used in steady-state solver, use 'bounded Gauss' to ensure boundedness.
    To remove this warning switch off 'warnUnboundedGauss' in "/opt/openfoam231/etc/controlDict"
smoothSolver:  Solving for omega, Initial residual = 5.497067251e-07, Final residual = 1.652019409e-07, No Iterations 1
--> FOAM Warning : 
    From function gaussConvectionScheme
    in file finiteVolume/convectionSchemes/gaussConvectionScheme/gaussConvectionScheme.H at line 123
    Reading "/home/ami/Desktop/virtauslaskenta/etukateenTehty/helyxVersion/system/fvSchemes.divSchemes.div(phi,k)" at line 43
    Unbounded 'Gauss' div scheme used in steady-state solver, use 'bounded Gauss' to ensure boundedness.
    To remove this warning switch off 'warnUnboundedGauss' in "/opt/openfoam231/etc/controlDict"
smoothSolver:  Solving for k, Initial residual = 5.906182012e-06, Final residual = 5.069764982e-07, No Iterations 2
ExecutionTime = 27.57 s  ClockTime = 30 s

Time = 158

smoothSolver:  Solving for Ux, Initial residual = 1.182917337e-06, Final residual = 3.866215458e-07, No Iterations 1
smoothSolver:  Solving for Uy, Initial residual = 5.485455248e-07, Final residual = 1.714830147e-07, No Iterations 1
smoothSolver:  Solving for Uz, Initial residual = 3.266557845e-06, Final residual = 3.681474981e-07, No Iterations 2
smoothSolver:  Solving for T, Initial residual = 0.001139739383, Final residual = 0.0001000229197, No Iterations 2
GAMG:  Solving for p_rgh, Initial residual = 1.007817976e-05, Final residual = 8.622053641e-08, No Iterations 4
time step continuity errors : sum local = 2.808245518e-06, global = 1.817515973e-08, cumulative = 0.06472659544
--> FOAM Warning : 
    From function gaussConvectionScheme
    in file finiteVolume/convectionSchemes/gaussConvectionScheme/gaussConvectionScheme.H at line 123
    Reading "/home/ami/Desktop/virtauslaskenta/etukateenTehty/helyxVersion/system/fvSchemes.divSchemes.div(phi,omega)" at line 47
    Unbounded 'Gauss' div scheme used in steady-state solver, use 'bounded Gauss' to ensure boundedness.
    To remove this warning switch off 'warnUnboundedGauss' in "/opt/openfoam231/etc/controlDict"
smoothSolver:  Solving for omega, Initial residual = 5.003871662e-07, Final residual = 1.51092734e-07, No Iterations 1
--> FOAM Warning : 
    From function gaussConvectionScheme
    in file finiteVolume/convectionSchemes/gaussConvectionScheme/gaussConvectionScheme.H at line 123
    Reading "/home/ami/Desktop/virtauslaskenta/etukateenTehty/helyxVersion/system/fvSchemes.divSchemes.div(phi,k)" at line 43
    Unbounded 'Gauss' div scheme used in steady-state solver, use 'bounded Gauss' to ensure boundedness.
    To remove this warning switch off 'warnUnboundedGauss' in "/opt/openfoam231/etc/controlDict"
smoothSolver:  Solving for k, Initial residual = 5.288750763e-06, Final residual = 4.543020358e-07, No Iterations 2
ExecutionTime = 27.73 s  ClockTime = 30 s

Time = 159

smoothSolver:  Solving for Ux, Initial residual = 1.082235345e-06, Final residual = 3.539692386e-07, No Iterations 1
smoothSolver:  Solving for Uy, Initial residual = 5.087871811e-07, Final residual = 1.589415495e-07, No Iterations 1
smoothSolver:  Solving for Uz, Initial residual = 2.873057892e-06, Final residual = 8.665309344e-07, No Iterations 1
smoothSolver:  Solving for T, Initial residual = 0.001076063347, Final residual = 9.340512718e-05, No Iterations 2
GAMG:  Solving for p_rgh, Initial residual = 9.139075618e-06, Final residual = 7.31101397e-08, No Iterations 4
time step continuity errors : sum local = 2.381233894e-06, global = 3.020714774e-08, cumulative = 0.06472662565
--> FOAM Warning : 
    From function gaussConvectionScheme
    in file finiteVolume/convectionSchemes/gaussConvectionScheme/gaussConvectionScheme.H at line 123
    Reading "/home/ami/Desktop/virtauslaskenta/etukateenTehty/helyxVersion/system/fvSchemes.divSchemes.div(phi,omega)" at line 47
    Unbounded 'Gauss' div scheme used in steady-state solver, use 'bounded Gauss' to ensure boundedness.
    To remove this warning switch off 'warnUnboundedGauss' in "/opt/openfoam231/etc/controlDict"
smoothSolver:  Solving for omega, Initial residual = 4.561536152e-07, Final residual = 1.38446333e-07, No Iterations 1
--> FOAM Warning : 
    From function gaussConvectionScheme
    in file finiteVolume/convectionSchemes/gaussConvectionScheme/gaussConvectionScheme.H at line 123
    Reading "/home/ami/Desktop/virtauslaskenta/etukateenTehty/helyxVersion/system/fvSchemes.divSchemes.div(phi,k)" at line 43
    Unbounded 'Gauss' div scheme used in steady-state solver, use 'bounded Gauss' to ensure boundedness.
    To remove this warning switch off 'warnUnboundedGauss' in "/opt/openfoam231/etc/controlDict"
smoothSolver:  Solving for k, Initial residual = 4.735296156e-06, Final residual = 4.069306323e-07, No Iterations 2
ExecutionTime = 27.89 s  ClockTime = 30 s

Time = 160

smoothSolver:  Solving for Ux, Initial residual = 9.891527256e-07, Final residual = 3.236864451e-07, No Iterations 1
smoothSolver:  Solving for Uy, Initial residual = 4.661435863e-07, Final residual = 1.457156135e-07, No Iterations 1
smoothSolver:  Solving for Uz, Initial residual = 2.603437668e-06, Final residual = 7.99605493e-07, No Iterations 1
smoothSolver:  Solving for T, Initial residual = 0.001008277126, Final residual = 8.662318331e-05, No Iterations 2
GAMG:  Solving for p_rgh, Initial residual = 8.344852207e-06, Final residual = 5.80260164e-08, No Iterations 4
time step continuity errors : sum local = 1.88993651e-06, global = 1.118991853e-08, cumulative = 0.06472663684
--> FOAM Warning : 
    From function gaussConvectionScheme
    in file finiteVolume/convectionSchemes/gaussConvectionScheme/gaussConvectionScheme.H at line 123
    Reading "/home/ami/Desktop/virtauslaskenta/etukateenTehty/helyxVersion/system/fvSchemes.divSchemes.div(phi,omega)" at line 47
    Unbounded 'Gauss' div scheme used in steady-state solver, use 'bounded Gauss' to ensure boundedness.
    To remove this warning switch off 'warnUnboundedGauss' in "/opt/openfoam231/etc/controlDict"
smoothSolver:  Solving for omega, Initial residual = 4.161828817e-07, Final residual = 1.269936145e-07, No Iterations 1
--> FOAM Warning : 
    From function gaussConvectionScheme
    in file finiteVolume/convectionSchemes/gaussConvectionScheme/gaussConvectionScheme.H at line 123
    Reading "/home/ami/Desktop/virtauslaskenta/etukateenTehty/helyxVersion/system/fvSchemes.divSchemes.div(phi,k)" at line 43
    Unbounded 'Gauss' div scheme used in steady-state solver, use 'bounded Gauss' to ensure boundedness.
    To remove this warning switch off 'warnUnboundedGauss' in "/opt/openfoam231/etc/controlDict"
smoothSolver:  Solving for k, Initial residual = 4.24102858e-06, Final residual = 3.64365434e-07, No Iterations 2
ExecutionTime = 28.05 s  ClockTime = 30 s

Time = 161

smoothSolver:  Solving for Ux, Initial residual = 9.044994683e-07, Final residual = 2.96125053e-07, No Iterations 1
smoothSolver:  Solving for Uy, Initial residual = 4.206214065e-07, Final residual = 1.314745432e-07, No Iterations 1
smoothSolver:  Solving for Uz, Initial residual = 2.438295301e-06, Final residual = 7.56665103e-07, No Iterations 1
smoothSolver:  Solving for T, Initial residual = 0.0009393717526, Final residual = 7.835749032e-05, No Iterations 2
GAMG:  Solving for p_rgh, Initial residual = 7.652803304e-06, Final residual = 5.261538761e-08, No Iterations 4
time step continuity errors : sum local = 1.713709715e-06, global = -1.139470894e-08, cumulative = 0.06472662545
--> FOAM Warning : 
    From function gaussConvectionScheme
    in file finiteVolume/convectionSchemes/gaussConvectionScheme/gaussConvectionScheme.H at line 123
    Reading "/home/ami/Desktop/virtauslaskenta/etukateenTehty/helyxVersion/system/fvSchemes.divSchemes.div(phi,omega)" at line 47
    Unbounded 'Gauss' div scheme used in steady-state solver, use 'bounded Gauss' to ensure boundedness.
    To remove this warning switch off 'warnUnboundedGauss' in "/opt/openfoam231/etc/controlDict"
smoothSolver:  Solving for omega, Initial residual = 3.802388102e-07, Final residual = 1.166427501e-07, No Iterations 1
--> FOAM Warning : 
    From function gaussConvectionScheme
    in file finiteVolume/convectionSchemes/gaussConvectionScheme/gaussConvectionScheme.H at line 123
    Reading "/home/ami/Desktop/virtauslaskenta/etukateenTehty/helyxVersion/system/fvSchemes.divSchemes.div(phi,k)" at line 43
    Unbounded 'Gauss' div scheme used in steady-state solver, use 'bounded Gauss' to ensure boundedness.
    To remove this warning switch off 'warnUnboundedGauss' in "/opt/openfoam231/etc/controlDict"
smoothSolver:  Solving for k, Initial residual = 3.799665796e-06, Final residual = 3.261894416e-07, No Iterations 2
ExecutionTime = 28.21 s  ClockTime = 30 s


SIMPLE solution converged in 161 iterations

End

Finalising parallel run
