/*---------------------------------------------------------------------------*\
| =========                 |                                                 |
| \\      /  F ield         | OpenFOAM: The Open Source CFD Toolbox           |
|  \\    /   O peration     | Version:  2.3.1                                 |
|   \\  /    A nd           | Web:      www.OpenFOAM.org                      |
|    \\/     M anipulation  |                                                 |
\*---------------------------------------------------------------------------*/
Build  : 2.3.1-bcfaaa7b8660
Exec   : patchAverage -latestTime p inletSmall
Date   : Oct 22 2015
Time   : 13:20:32
Host   : "lapami"
PID    : 22781
Case   : /home/ami/Desktop/virtauslaskenta/etukateenTehty/cliVersion
nProcs : 1
sigFpe : Enabling floating point exception trapping (FOAM_SIGFPE).
fileModificationChecking : Monitoring run-time modified files using timeStampMaster
allowSystemOperations : Allowing user-supplied system call operations

// * * * * * * * * * * * * * * * * * * * * * * * * * * * * * * * * * * * * * //
Create time

Create mesh for time = 161

Time = 161
    Reading volScalarField p
    Average of volScalarField over patch inletSmall[7] = 5.081690863

End

