/*---------------------------------------------------------------------------*\
| =========                 |                                                 |
| \\      /  F ield         | OpenFOAM: The Open Source CFD Toolbox           |
|  \\    /   O peration     | Version:  2.3.1                                 |
|   \\  /    A nd           | Web:      www.OpenFOAM.org                      |
|    \\/     M anipulation  |                                                 |
\*---------------------------------------------------------------------------*/
Build  : 2.3.1-bcfaaa7b8660
Exec   : buoyantBoussinesqSimpleFoam -parallel
Date   : Oct 22 2015
Time   : 13:11:48
Host   : "lapami"
PID    : 22299
Case   : /home/ami/Desktop/virtauslaskenta/etukateenTehty/cliVersion
nProcs : 2
Slaves : 1("lapami.22300")
Pstream initialized with:
    floatTransfer      : 0
    nProcsSimpleSum    : 0
    commsType          : nonBlocking
    polling iterations : 0
sigFpe : Enabling floating point exception trapping (FOAM_SIGFPE).
fileModificationChecking : Monitoring run-time modified files using timeStampMaster
allowSystemOperations : Allowing user-supplied system call operations

// * * * * * * * * * * * * * * * * * * * * * * * * * * * * * * * * * * * * * //
Create time

Create mesh for time = 0


Reading g
Reading thermophysical properties

Reading field T

Reading field p_rgh

Reading field U

Reading/calculating face flux field phi

Selecting incompressible transport model Newtonian
Creating turbulence model

Selecting RAS turbulence model kOmegaSST
kOmegaSSTCoeffs
{
    label           "k-\u03C9 SST";
    fieldMaps
    {
        k               k;
        omega           omega;
        nut             nut;
    }
    alphaK1         0.85034;
    alphaK2         1;
    alphaOmega1     0.5;
    alphaOmega2     0.85616;
    gamma1          0.5532;
    gamma2          0.4403;
    beta1           0.075;
    beta2           0.0828;
    betaStar        0.09;
    a1              0.31;
    c1              10;
    Cmu             0.09;
    b1              1;
    F3              false;
}

Reading field alphat

Calculating field g.h

Creating finite volume options from "system/fvOptions"


SIMPLE: convergence criteria
    field U	 tolerance 0.001
    field k	 tolerance 0.001
    field epsilon	 tolerance 1e-05
    field omega	 tolerance 0.001
    field nuTilda	 tolerance 1e-05
    field T	 tolerance 0.001
    field p_rgh	 tolerance 0.001
    field p	 tolerance 1e-05


Starting time loop

Time = 1

smoothSolver:  Solving for Ux, Initial residual = 1, Final residual = 0.06019771072, No Iterations 3
smoothSolver:  Solving for Uy, Initial residual = 1, Final residual = 0.05814522088, No Iterations 3
smoothSolver:  Solving for Uz, Initial residual = 1, Final residual = 0.09107806837, No Iterations 3
smoothSolver:  Solving for T, Initial residual = 0, Final residual = 0, No Iterations 1
GAMG:  Solving for p_rgh, Initial residual = 1, Final residual = 0.005273991711, No Iterations 9
time step continuity errors : sum local = 0.1016432068, global = -0.0001821960596, cumulative = -0.0001821960596
--> FOAM Warning : 
    From function gaussConvectionScheme
    in file finiteVolume/convectionSchemes/gaussConvectionScheme/gaussConvectionScheme.H at line 123
    Reading "/home/ami/Desktop/virtauslaskenta/etukateenTehty/cliVersion/system/fvSchemes.divSchemes.div(phi,omega)" at line 47
    Unbounded 'Gauss' div scheme used in steady-state solver, use 'bounded Gauss' to ensure boundedness.
    To remove this warning switch off 'warnUnboundedGauss' in "/opt/openfoam231/etc/controlDict"
smoothSolver:  Solving for omega, Initial residual = 0.6277031416, Final residual = 0.01996146699, No Iterations 2
--> FOAM Warning : 
    From function gaussConvectionScheme
    in file finiteVolume/convectionSchemes/gaussConvectionScheme/gaussConvectionScheme.H at line 123
    Reading "/home/ami/Desktop/virtauslaskenta/etukateenTehty/cliVersion/system/fvSchemes.divSchemes.div(phi,k)" at line 43
    Unbounded 'Gauss' div scheme used in steady-state solver, use 'bounded Gauss' to ensure boundedness.
    To remove this warning switch off 'warnUnboundedGauss' in "/opt/openfoam231/etc/controlDict"
smoothSolver:  Solving for k, Initial residual = 1, Final residual = 0.04379232564, No Iterations 2
ExecutionTime = 0.42 s  ClockTime = 1 s

Time = 2

smoothSolver:  Solving for Ux, Initial residual = 0.1073361687, Final residual = 0.008964711565, No Iterations 2
smoothSolver:  Solving for Uy, Initial residual = 0.1569959314, Final residual = 0.01303413901, No Iterations 2
smoothSolver:  Solving for Uz, Initial residual = 0.4999423849, Final residual = 0.02172557294, No Iterations 2
smoothSolver:  Solving for T, Initial residual = 1, Final residual = 0.05130532129, No Iterations 3
GAMG:  Solving for p_rgh, Initial residual = 0.3681826396, Final residual = 0.003078340433, No Iterations 23
time step continuity errors : sum local = 0.2349969295, global = 0.0001977610679, cumulative = 1.556500831e-05
--> FOAM Warning : 
    From function gaussConvectionScheme
    in file finiteVolume/convectionSchemes/gaussConvectionScheme/gaussConvectionScheme.H at line 123
    Reading "/home/ami/Desktop/virtauslaskenta/etukateenTehty/cliVersion/system/fvSchemes.divSchemes.div(phi,omega)" at line 47
    Unbounded 'Gauss' div scheme used in steady-state solver, use 'bounded Gauss' to ensure boundedness.
    To remove this warning switch off 'warnUnboundedGauss' in "/opt/openfoam231/etc/controlDict"
smoothSolver:  Solving for omega, Initial residual = 0.3190534328, Final residual = 0.01403799184, No Iterations 2
--> FOAM Warning : 
    From function gaussConvectionScheme
    in file finiteVolume/convectionSchemes/gaussConvectionScheme/gaussConvectionScheme.H at line 123
    Reading "/home/ami/Desktop/virtauslaskenta/etukateenTehty/cliVersion/system/fvSchemes.divSchemes.div(phi,k)" at line 43
    Unbounded 'Gauss' div scheme used in steady-state solver, use 'bounded Gauss' to ensure boundedness.
    To remove this warning switch off 'warnUnboundedGauss' in "/opt/openfoam231/etc/controlDict"
smoothSolver:  Solving for k, Initial residual = 0.6771623385, Final residual = 0.03788763797, No Iterations 2
ExecutionTime = 0.64 s  ClockTime = 1 s

Time = 3

smoothSolver:  Solving for Ux, Initial residual = 0.3981340912, Final residual = 0.01852846919, No Iterations 3
smoothSolver:  Solving for Uy, Initial residual = 0.3158527709, Final residual = 0.01351421738, No Iterations 3
smoothSolver:  Solving for Uz, Initial residual = 0.3989060295, Final residual = 0.03573602349, No Iterations 2
smoothSolver:  Solving for T, Initial residual = 0.2295536302, Final residual = 0.009087144306, No Iterations 3
GAMG:  Solving for p_rgh, Initial residual = 0.06339733805, Final residual = 0.0003815699702, No Iterations 5
time step continuity errors : sum local = 0.2944540156, global = -0.001985825162, cumulative = -0.001970260154
--> FOAM Warning : 
    From function gaussConvectionScheme
    in file finiteVolume/convectionSchemes/gaussConvectionScheme/gaussConvectionScheme.H at line 123
    Reading "/home/ami/Desktop/virtauslaskenta/etukateenTehty/cliVersion/system/fvSchemes.divSchemes.div(phi,omega)" at line 47
    Unbounded 'Gauss' div scheme used in steady-state solver, use 'bounded Gauss' to ensure boundedness.
    To remove this warning switch off 'warnUnboundedGauss' in "/opt/openfoam231/etc/controlDict"
smoothSolver:  Solving for omega, Initial residual = 0.2058916127, Final residual = 0.01245971168, No Iterations 2
--> FOAM Warning : 
    From function gaussConvectionScheme
    in file finiteVolume/convectionSchemes/gaussConvectionScheme/gaussConvectionScheme.H at line 123
    Reading "/home/ami/Desktop/virtauslaskenta/etukateenTehty/cliVersion/system/fvSchemes.divSchemes.div(phi,k)" at line 43
    Unbounded 'Gauss' div scheme used in steady-state solver, use 'bounded Gauss' to ensure boundedness.
    To remove this warning switch off 'warnUnboundedGauss' in "/opt/openfoam231/etc/controlDict"
smoothSolver:  Solving for k, Initial residual = 0.6634584424, Final residual = 0.04003012776, No Iterations 2
ExecutionTime = 0.81 s  ClockTime = 1 s

Time = 4

smoothSolver:  Solving for Ux, Initial residual = 0.2459322117, Final residual = 0.01142621905, No Iterations 3
smoothSolver:  Solving for Uy, Initial residual = 0.1875947416, Final residual = 0.007888749479, No Iterations 3
smoothSolver:  Solving for Uz, Initial residual = 0.1943604297, Final residual = 0.01832135173, No Iterations 2
smoothSolver:  Solving for T, Initial residual = 0.1445461288, Final residual = 0.007451330217, No Iterations 2
GAMG:  Solving for p_rgh, Initial residual = 0.06037477567, Final residual = 0.0005339482697, No Iterations 11
time step continuity errors : sum local = 0.3870723497, global = -0.009205711177, cumulative = -0.01117597133
--> FOAM Warning : 
    From function gaussConvectionScheme
    in file finiteVolume/convectionSchemes/gaussConvectionScheme/gaussConvectionScheme.H at line 123
    Reading "/home/ami/Desktop/virtauslaskenta/etukateenTehty/cliVersion/system/fvSchemes.divSchemes.div(phi,omega)" at line 47
    Unbounded 'Gauss' div scheme used in steady-state solver, use 'bounded Gauss' to ensure boundedness.
    To remove this warning switch off 'warnUnboundedGauss' in "/opt/openfoam231/etc/controlDict"
smoothSolver:  Solving for omega, Initial residual = 0.107840976, Final residual = 0.00731669214, No Iterations 2
--> FOAM Warning : 
    From function gaussConvectionScheme
    in file finiteVolume/convectionSchemes/gaussConvectionScheme/gaussConvectionScheme.H at line 123
    Reading "/home/ami/Desktop/virtauslaskenta/etukateenTehty/cliVersion/system/fvSchemes.divSchemes.div(phi,k)" at line 43
    Unbounded 'Gauss' div scheme used in steady-state solver, use 'bounded Gauss' to ensure boundedness.
    To remove this warning switch off 'warnUnboundedGauss' in "/opt/openfoam231/etc/controlDict"
smoothSolver:  Solving for k, Initial residual = 0.413566621, Final residual = 0.02434473268, No Iterations 2
ExecutionTime = 1 s  ClockTime = 1 s

Time = 5

smoothSolver:  Solving for Ux, Initial residual = 0.03634242126, Final residual = 0.001464947601, No Iterations 3
smoothSolver:  Solving for Uy, Initial residual = 0.04390435137, Final residual = 0.001861205044, No Iterations 3
smoothSolver:  Solving for Uz, Initial residual = 0.260407188, Final residual = 0.01927247506, No Iterations 2
smoothSolver:  Solving for T, Initial residual = 0.09212089142, Final residual = 0.005951059985, No Iterations 2
GAMG:  Solving for p_rgh, Initial residual = 0.3139400031, Final residual = 0.003022556789, No Iterations 11
time step continuity errors : sum local = 0.3265099595, global = -0.007832543223, cumulative = -0.01900851455
--> FOAM Warning : 
    From function gaussConvectionScheme
    in file finiteVolume/convectionSchemes/gaussConvectionScheme/gaussConvectionScheme.H at line 123
    Reading "/home/ami/Desktop/virtauslaskenta/etukateenTehty/cliVersion/system/fvSchemes.divSchemes.div(phi,omega)" at line 47
    Unbounded 'Gauss' div scheme used in steady-state solver, use 'bounded Gauss' to ensure boundedness.
    To remove this warning switch off 'warnUnboundedGauss' in "/opt/openfoam231/etc/controlDict"
smoothSolver:  Solving for omega, Initial residual = 0.06260474937, Final residual = 0.004424765553, No Iterations 2
--> FOAM Warning : 
    From function gaussConvectionScheme
    in file finiteVolume/convectionSchemes/gaussConvectionScheme/gaussConvectionScheme.H at line 123
    Reading "/home/ami/Desktop/virtauslaskenta/etukateenTehty/cliVersion/system/fvSchemes.divSchemes.div(phi,k)" at line 43
    Unbounded 'Gauss' div scheme used in steady-state solver, use 'bounded Gauss' to ensure boundedness.
    To remove this warning switch off 'warnUnboundedGauss' in "/opt/openfoam231/etc/controlDict"
smoothSolver:  Solving for k, Initial residual = 0.1931602539, Final residual = 0.01165708285, No Iterations 2
ExecutionTime = 1.18 s  ClockTime = 2 s

Time = 6

smoothSolver:  Solving for Ux, Initial residual = 0.1909053048, Final residual = 0.008245690627, No Iterations 3
smoothSolver:  Solving for Uy, Initial residual = 0.1446955039, Final residual = 0.006136751248, No Iterations 3
smoothSolver:  Solving for Uz, Initial residual = 0.2619037522, Final residual = 0.02323880413, No Iterations 2
smoothSolver:  Solving for T, Initial residual = 0.07044294382, Final residual = 0.004957995137, No Iterations 2
GAMG:  Solving for p_rgh, Initial residual = 0.1035986605, Final residual = 0.0006254948754, No Iterations 7
time step continuity errors : sum local = 0.2927677544, global = 0.002264823292, cumulative = -0.01674369126
--> FOAM Warning : 
    From function gaussConvectionScheme
    in file finiteVolume/convectionSchemes/gaussConvectionScheme/gaussConvectionScheme.H at line 123
    Reading "/home/ami/Desktop/virtauslaskenta/etukateenTehty/cliVersion/system/fvSchemes.divSchemes.div(phi,omega)" at line 47
    Unbounded 'Gauss' div scheme used in steady-state solver, use 'bounded Gauss' to ensure boundedness.
    To remove this warning switch off 'warnUnboundedGauss' in "/opt/openfoam231/etc/controlDict"
smoothSolver:  Solving for omega, Initial residual = 0.04588177365, Final residual = 0.003347265563, No Iterations 2
--> FOAM Warning : 
    From function gaussConvectionScheme
    in file finiteVolume/convectionSchemes/gaussConvectionScheme/gaussConvectionScheme.H at line 123
    Reading "/home/ami/Desktop/virtauslaskenta/etukateenTehty/cliVersion/system/fvSchemes.divSchemes.div(phi,k)" at line 43
    Unbounded 'Gauss' div scheme used in steady-state solver, use 'bounded Gauss' to ensure boundedness.
    To remove this warning switch off 'warnUnboundedGauss' in "/opt/openfoam231/etc/controlDict"
smoothSolver:  Solving for k, Initial residual = 0.133780792, Final residual = 0.00657851965, No Iterations 2
ExecutionTime = 1.36 s  ClockTime = 2 s

Time = 7

smoothSolver:  Solving for Ux, Initial residual = 0.1913232272, Final residual = 0.008405339159, No Iterations 3
smoothSolver:  Solving for Uy, Initial residual = 0.14758994, Final residual = 0.006197956828, No Iterations 3
smoothSolver:  Solving for Uz, Initial residual = 0.1993989478, Final residual = 0.008215544176, No Iterations 3
smoothSolver:  Solving for T, Initial residual = 0.06007486762, Final residual = 0.004440758983, No Iterations 2
GAMG:  Solving for p_rgh, Initial residual = 0.1166375188, Final residual = 0.001041539378, No Iterations 10
time step continuity errors : sum local = 0.4149407395, global = -0.01089016603, cumulative = -0.02763385729
--> FOAM Warning : 
    From function gaussConvectionScheme
    in file finiteVolume/convectionSchemes/gaussConvectionScheme/gaussConvectionScheme.H at line 123
    Reading "/home/ami/Desktop/virtauslaskenta/etukateenTehty/cliVersion/system/fvSchemes.divSchemes.div(phi,omega)" at line 47
    Unbounded 'Gauss' div scheme used in steady-state solver, use 'bounded Gauss' to ensure boundedness.
    To remove this warning switch off 'warnUnboundedGauss' in "/opt/openfoam231/etc/controlDict"
smoothSolver:  Solving for omega, Initial residual = 0.03506314982, Final residual = 0.002673922979, No Iterations 2
--> FOAM Warning : 
    From function gaussConvectionScheme
    in file finiteVolume/convectionSchemes/gaussConvectionScheme/gaussConvectionScheme.H at line 123
    Reading "/home/ami/Desktop/virtauslaskenta/etukateenTehty/cliVersion/system/fvSchemes.divSchemes.div(phi,k)" at line 43
    Unbounded 'Gauss' div scheme used in steady-state solver, use 'bounded Gauss' to ensure boundedness.
    To remove this warning switch off 'warnUnboundedGauss' in "/opt/openfoam231/etc/controlDict"
smoothSolver:  Solving for k, Initial residual = 0.1445049703, Final residual = 0.006912908027, No Iterations 2
ExecutionTime = 1.54 s  ClockTime = 2 s

Time = 8

smoothSolver:  Solving for Ux, Initial residual = 0.04368374835, Final residual = 0.0017975951, No Iterations 3
smoothSolver:  Solving for Uy, Initial residual = 0.05394653557, Final residual = 0.002214799102, No Iterations 3
smoothSolver:  Solving for Uz, Initial residual = 0.2454936085, Final residual = 0.02080641158, No Iterations 2
smoothSolver:  Solving for T, Initial residual = 0.05124833672, Final residual = 0.004407725072, No Iterations 2
GAMG:  Solving for p_rgh, Initial residual = 0.3917309492, Final residual = 0.003696301034, No Iterations 10
time step continuity errors : sum local = 0.3120614433, global = -0.007142052713, cumulative = -0.03477591
--> FOAM Warning : 
    From function gaussConvectionScheme
    in file finiteVolume/convectionSchemes/gaussConvectionScheme/gaussConvectionScheme.H at line 123
    Reading "/home/ami/Desktop/virtauslaskenta/etukateenTehty/cliVersion/system/fvSchemes.divSchemes.div(phi,omega)" at line 47
    Unbounded 'Gauss' div scheme used in steady-state solver, use 'bounded Gauss' to ensure boundedness.
    To remove this warning switch off 'warnUnboundedGauss' in "/opt/openfoam231/etc/controlDict"
smoothSolver:  Solving for omega, Initial residual = 0.02822160466, Final residual = 0.002230982893, No Iterations 2
--> FOAM Warning : 
    From function gaussConvectionScheme
    in file finiteVolume/convectionSchemes/gaussConvectionScheme/gaussConvectionScheme.H at line 123
    Reading "/home/ami/Desktop/virtauslaskenta/etukateenTehty/cliVersion/system/fvSchemes.divSchemes.div(phi,k)" at line 43
    Unbounded 'Gauss' div scheme used in steady-state solver, use 'bounded Gauss' to ensure boundedness.
    To remove this warning switch off 'warnUnboundedGauss' in "/opt/openfoam231/etc/controlDict"
smoothSolver:  Solving for k, Initial residual = 0.09824733073, Final residual = 0.006511719626, No Iterations 2
ExecutionTime = 1.74 s  ClockTime = 2 s

Time = 9

smoothSolver:  Solving for Ux, Initial residual = 0.1202805756, Final residual = 0.005488294331, No Iterations 3
smoothSolver:  Solving for Uy, Initial residual = 0.1109406005, Final residual = 0.004951118919, No Iterations 3
smoothSolver:  Solving for Uz, Initial residual = 0.2213917313, Final residual = 0.01960791436, No Iterations 2
smoothSolver:  Solving for T, Initial residual = 0.04645531913, Final residual = 0.004274716595, No Iterations 2
GAMG:  Solving for p_rgh, Initial residual = 0.1091547341, Final residual = 0.0008977074911, No Iterations 7
time step continuity errors : sum local = 0.2859857378, global = -0.00362728573, cumulative = -0.03840319573
--> FOAM Warning : 
    From function gaussConvectionScheme
    in file finiteVolume/convectionSchemes/gaussConvectionScheme/gaussConvectionScheme.H at line 123
    Reading "/home/ami/Desktop/virtauslaskenta/etukateenTehty/cliVersion/system/fvSchemes.divSchemes.div(phi,omega)" at line 47
    Unbounded 'Gauss' div scheme used in steady-state solver, use 'bounded Gauss' to ensure boundedness.
    To remove this warning switch off 'warnUnboundedGauss' in "/opt/openfoam231/etc/controlDict"
smoothSolver:  Solving for omega, Initial residual = 0.02528590341, Final residual = 0.002064060047, No Iterations 2
--> FOAM Warning : 
    From function gaussConvectionScheme
    in file finiteVolume/convectionSchemes/gaussConvectionScheme/gaussConvectionScheme.H at line 123
    Reading "/home/ami/Desktop/virtauslaskenta/etukateenTehty/cliVersion/system/fvSchemes.divSchemes.div(phi,k)" at line 43
    Unbounded 'Gauss' div scheme used in steady-state solver, use 'bounded Gauss' to ensure boundedness.
    To remove this warning switch off 'warnUnboundedGauss' in "/opt/openfoam231/etc/controlDict"
smoothSolver:  Solving for k, Initial residual = 0.07209474915, Final residual = 0.005016585511, No Iterations 2
ExecutionTime = 1.91 s  ClockTime = 2 s

Time = 10

smoothSolver:  Solving for Ux, Initial residual = 0.07750745546, Final residual = 0.003622794649, No Iterations 3
smoothSolver:  Solving for Uy, Initial residual = 0.07009819816, Final residual = 0.00312034429, No Iterations 3
smoothSolver:  Solving for Uz, Initial residual = 0.1468121251, Final residual = 0.006309549895, No Iterations 3
smoothSolver:  Solving for T, Initial residual = 0.04149545654, Final residual = 0.004027192736, No Iterations 2
GAMG:  Solving for p_rgh, Initial residual = 0.1349488834, Final residual = 0.0008613195305, No Iterations 10
time step continuity errors : sum local = 0.2067848144, global = 0.005148993635, cumulative = -0.0332542021
--> FOAM Warning : 
    From function gaussConvectionScheme
    in file finiteVolume/convectionSchemes/gaussConvectionScheme/gaussConvectionScheme.H at line 123
    Reading "/home/ami/Desktop/virtauslaskenta/etukateenTehty/cliVersion/system/fvSchemes.divSchemes.div(phi,omega)" at line 47
    Unbounded 'Gauss' div scheme used in steady-state solver, use 'bounded Gauss' to ensure boundedness.
    To remove this warning switch off 'warnUnboundedGauss' in "/opt/openfoam231/etc/controlDict"
smoothSolver:  Solving for omega, Initial residual = 0.01826962823, Final residual = 0.001541307055, No Iterations 2
--> FOAM Warning : 
    From function gaussConvectionScheme
    in file finiteVolume/convectionSchemes/gaussConvectionScheme/gaussConvectionScheme.H at line 123
    Reading "/home/ami/Desktop/virtauslaskenta/etukateenTehty/cliVersion/system/fvSchemes.divSchemes.div(phi,k)" at line 43
    Unbounded 'Gauss' div scheme used in steady-state solver, use 'bounded Gauss' to ensure boundedness.
    To remove this warning switch off 'warnUnboundedGauss' in "/opt/openfoam231/etc/controlDict"
smoothSolver:  Solving for k, Initial residual = 0.07542067483, Final residual = 0.004635486759, No Iterations 2
ExecutionTime = 2.1 s  ClockTime = 3 s

Time = 11

smoothSolver:  Solving for Ux, Initial residual = 0.02688227292, Final residual = 0.002501627126, No Iterations 2
smoothSolver:  Solving for Uy, Initial residual = 0.03526933134, Final residual = 0.001501358163, No Iterations 3
smoothSolver:  Solving for Uz, Initial residual = 0.1410823241, Final residual = 0.0133381273, No Iterations 2
smoothSolver:  Solving for T, Initial residual = 0.03735059602, Final residual = 0.001481541813, No Iterations 3
GAMG:  Solving for p_rgh, Initial residual = 0.3666546574, Final residual = 0.003391112706, No Iterations 9
time step continuity errors : sum local = 0.247306416, global = -0.006618533181, cumulative = -0.03987273528
--> FOAM Warning : 
    From function gaussConvectionScheme
    in file finiteVolume/convectionSchemes/gaussConvectionScheme/gaussConvectionScheme.H at line 123
    Reading "/home/ami/Desktop/virtauslaskenta/etukateenTehty/cliVersion/system/fvSchemes.divSchemes.div(phi,omega)" at line 47
    Unbounded 'Gauss' div scheme used in steady-state solver, use 'bounded Gauss' to ensure boundedness.
    To remove this warning switch off 'warnUnboundedGauss' in "/opt/openfoam231/etc/controlDict"
smoothSolver:  Solving for omega, Initial residual = 0.01684876056, Final residual = 0.001419435562, No Iterations 2
--> FOAM Warning : 
    From function gaussConvectionScheme
    in file finiteVolume/convectionSchemes/gaussConvectionScheme/gaussConvectionScheme.H at line 123
    Reading "/home/ami/Desktop/virtauslaskenta/etukateenTehty/cliVersion/system/fvSchemes.divSchemes.div(phi,k)" at line 43
    Unbounded 'Gauss' div scheme used in steady-state solver, use 'bounded Gauss' to ensure boundedness.
    To remove this warning switch off 'warnUnboundedGauss' in "/opt/openfoam231/etc/controlDict"
smoothSolver:  Solving for k, Initial residual = 0.0543829998, Final residual = 0.003747198477, No Iterations 2
ExecutionTime = 2.28 s  ClockTime = 3 s

Time = 12

smoothSolver:  Solving for Ux, Initial residual = 0.06832354493, Final residual = 0.002914732864, No Iterations 3
smoothSolver:  Solving for Uy, Initial residual = 0.05971202995, Final residual = 0.002658628151, No Iterations 3
smoothSolver:  Solving for Uz, Initial residual = 0.122590545, Final residual = 0.01145442002, No Iterations 2
smoothSolver:  Solving for T, Initial residual = 0.03406065031, Final residual = 0.001402900336, No Iterations 3
GAMG:  Solving for p_rgh, Initial residual = 0.1524930563, Final residual = 0.0013937838, No Iterations 7
time step continuity errors : sum local = 0.2612686558, global = 0.006453743193, cumulative = -0.03341899209
--> FOAM Warning : 
    From function gaussConvectionScheme
    in file finiteVolume/convectionSchemes/gaussConvectionScheme/gaussConvectionScheme.H at line 123
    Reading "/home/ami/Desktop/virtauslaskenta/etukateenTehty/cliVersion/system/fvSchemes.divSchemes.div(phi,omega)" at line 47
    Unbounded 'Gauss' div scheme used in steady-state solver, use 'bounded Gauss' to ensure boundedness.
    To remove this warning switch off 'warnUnboundedGauss' in "/opt/openfoam231/etc/controlDict"
smoothSolver:  Solving for omega, Initial residual = 0.01639489516, Final residual = 0.001403912405, No Iterations 2
--> FOAM Warning : 
    From function gaussConvectionScheme
    in file finiteVolume/convectionSchemes/gaussConvectionScheme/gaussConvectionScheme.H at line 123
    Reading "/home/ami/Desktop/virtauslaskenta/etukateenTehty/cliVersion/system/fvSchemes.divSchemes.div(phi,k)" at line 43
    Unbounded 'Gauss' div scheme used in steady-state solver, use 'bounded Gauss' to ensure boundedness.
    To remove this warning switch off 'warnUnboundedGauss' in "/opt/openfoam231/etc/controlDict"
smoothSolver:  Solving for k, Initial residual = 0.05807815705, Final residual = 0.003280744682, No Iterations 2
ExecutionTime = 2.46 s  ClockTime = 3 s

Time = 13

smoothSolver:  Solving for Ux, Initial residual = 0.0455077872, Final residual = 0.002014819166, No Iterations 3
smoothSolver:  Solving for Uy, Initial residual = 0.04244918259, Final residual = 0.001830838142, No Iterations 3
smoothSolver:  Solving for Uz, Initial residual = 0.09775033537, Final residual = 0.009366723535, No Iterations 2
smoothSolver:  Solving for T, Initial residual = 0.03159798654, Final residual = 0.001281884741, No Iterations 3
GAMG:  Solving for p_rgh, Initial residual = 0.2078090061, Final residual = 0.001475399931, No Iterations 9
time step continuity errors : sum local = 0.186916103, global = 0.00310898878, cumulative = -0.03031000331
--> FOAM Warning : 
    From function gaussConvectionScheme
    in file finiteVolume/convectionSchemes/gaussConvectionScheme/gaussConvectionScheme.H at line 123
    Reading "/home/ami/Desktop/virtauslaskenta/etukateenTehty/cliVersion/system/fvSchemes.divSchemes.div(phi,omega)" at line 47
    Unbounded 'Gauss' div scheme used in steady-state solver, use 'bounded Gauss' to ensure boundedness.
    To remove this warning switch off 'warnUnboundedGauss' in "/opt/openfoam231/etc/controlDict"
smoothSolver:  Solving for omega, Initial residual = 0.01280815238, Final residual = 0.001083990427, No Iterations 2
--> FOAM Warning : 
    From function gaussConvectionScheme
    in file finiteVolume/convectionSchemes/gaussConvectionScheme/gaussConvectionScheme.H at line 123
    Reading "/home/ami/Desktop/virtauslaskenta/etukateenTehty/cliVersion/system/fvSchemes.divSchemes.div(phi,k)" at line 43
    Unbounded 'Gauss' div scheme used in steady-state solver, use 'bounded Gauss' to ensure boundedness.
    To remove this warning switch off 'warnUnboundedGauss' in "/opt/openfoam231/etc/controlDict"
smoothSolver:  Solving for k, Initial residual = 0.05212884602, Final residual = 0.003016174303, No Iterations 2
ExecutionTime = 2.64 s  ClockTime = 3 s

Time = 14

smoothSolver:  Solving for Ux, Initial residual = 0.02781693658, Final residual = 0.001140095229, No Iterations 3
smoothSolver:  Solving for Uy, Initial residual = 0.02847044629, Final residual = 0.001298512788, No Iterations 3
smoothSolver:  Solving for Uz, Initial residual = 0.1103641489, Final residual = 0.01036001576, No Iterations 2
smoothSolver:  Solving for T, Initial residual = 0.02928256365, Final residual = 0.001230875107, No Iterations 3
GAMG:  Solving for p_rgh, Initial residual = 0.2692142869, Final residual = 0.002610235531, No Iterations 8
time step continuity errors : sum local = 0.2114293911, global = -0.004454505434, cumulative = -0.03476450874
--> FOAM Warning : 
    From function gaussConvectionScheme
    in file finiteVolume/convectionSchemes/gaussConvectionScheme/gaussConvectionScheme.H at line 123
    Reading "/home/ami/Desktop/virtauslaskenta/etukateenTehty/cliVersion/system/fvSchemes.divSchemes.div(phi,omega)" at line 47
    Unbounded 'Gauss' div scheme used in steady-state solver, use 'bounded Gauss' to ensure boundedness.
    To remove this warning switch off 'warnUnboundedGauss' in "/opt/openfoam231/etc/controlDict"
smoothSolver:  Solving for omega, Initial residual = 0.0111077508, Final residual = 0.0009209085983, No Iterations 2
--> FOAM Warning : 
    From function gaussConvectionScheme
    in file finiteVolume/convectionSchemes/gaussConvectionScheme/gaussConvectionScheme.H at line 123
    Reading "/home/ami/Desktop/virtauslaskenta/etukateenTehty/cliVersion/system/fvSchemes.divSchemes.div(phi,k)" at line 43
    Unbounded 'Gauss' div scheme used in steady-state solver, use 'bounded Gauss' to ensure boundedness.
    To remove this warning switch off 'warnUnboundedGauss' in "/opt/openfoam231/etc/controlDict"
smoothSolver:  Solving for k, Initial residual = 0.03838327761, Final residual = 0.002681455284, No Iterations 2
ExecutionTime = 2.82 s  ClockTime = 3 s

Time = 15

smoothSolver:  Solving for Ux, Initial residual = 0.03983437234, Final residual = 0.001792280708, No Iterations 3
smoothSolver:  Solving for Uy, Initial residual = 0.03786047641, Final residual = 0.001799261756, No Iterations 3
smoothSolver:  Solving for Uz, Initial residual = 0.1040756017, Final residual = 0.004427800571, No Iterations 3
smoothSolver:  Solving for T, Initial residual = 0.02742676794, Final residual = 0.001189411475, No Iterations 3
GAMG:  Solving for p_rgh, Initial residual = 0.1614006755, Final residual = 0.001515125365, No Iterations 7
time step continuity errors : sum local = 0.2025813725, global = -0.005070772613, cumulative = -0.03983528135
--> FOAM Warning : 
    From function gaussConvectionScheme
    in file finiteVolume/convectionSchemes/gaussConvectionScheme/gaussConvectionScheme.H at line 123
    Reading "/home/ami/Desktop/virtauslaskenta/etukateenTehty/cliVersion/system/fvSchemes.divSchemes.div(phi,omega)" at line 47
    Unbounded 'Gauss' div scheme used in steady-state solver, use 'bounded Gauss' to ensure boundedness.
    To remove this warning switch off 'warnUnboundedGauss' in "/opt/openfoam231/etc/controlDict"
smoothSolver:  Solving for omega, Initial residual = 0.009975804552, Final residual = 0.0008460065527, No Iterations 2
--> FOAM Warning : 
    From function gaussConvectionScheme
    in file finiteVolume/convectionSchemes/gaussConvectionScheme/gaussConvectionScheme.H at line 123
    Reading "/home/ami/Desktop/virtauslaskenta/etukateenTehty/cliVersion/system/fvSchemes.divSchemes.div(phi,k)" at line 43
    Unbounded 'Gauss' div scheme used in steady-state solver, use 'bounded Gauss' to ensure boundedness.
    To remove this warning switch off 'warnUnboundedGauss' in "/opt/openfoam231/etc/controlDict"
smoothSolver:  Solving for k, Initial residual = 0.03575273847, Final residual = 0.002551701633, No Iterations 2
ExecutionTime = 3 s  ClockTime = 3 s

Time = 16

smoothSolver:  Solving for Ux, Initial residual = 0.02231492749, Final residual = 0.001080007098, No Iterations 3
smoothSolver:  Solving for Uy, Initial residual = 0.0262182291, Final residual = 0.001210334021, No Iterations 3
smoothSolver:  Solving for Uz, Initial residual = 0.08594963096, Final residual = 0.004076363934, No Iterations 3
smoothSolver:  Solving for T, Initial residual = 0.02539574259, Final residual = 0.0011485615, No Iterations 3
GAMG:  Solving for p_rgh, Initial residual = 0.2259736006, Final residual = 0.001670676572, No Iterations 8
time step continuity errors : sum local = 0.1541124252, global = 0.003029789072, cumulative = -0.03680549228
--> FOAM Warning : 
    From function gaussConvectionScheme
    in file finiteVolume/convectionSchemes/gaussConvectionScheme/gaussConvectionScheme.H at line 123
    Reading "/home/ami/Desktop/virtauslaskenta/etukateenTehty/cliVersion/system/fvSchemes.divSchemes.div(phi,omega)" at line 47
    Unbounded 'Gauss' div scheme used in steady-state solver, use 'bounded Gauss' to ensure boundedness.
    To remove this warning switch off 'warnUnboundedGauss' in "/opt/openfoam231/etc/controlDict"
smoothSolver:  Solving for omega, Initial residual = 0.008040044467, Final residual = 0.00072718747, No Iterations 2
--> FOAM Warning : 
    From function gaussConvectionScheme
    in file finiteVolume/convectionSchemes/gaussConvectionScheme/gaussConvectionScheme.H at line 123
    Reading "/home/ami/Desktop/virtauslaskenta/etukateenTehty/cliVersion/system/fvSchemes.divSchemes.div(phi,k)" at line 43
    Unbounded 'Gauss' div scheme used in steady-state solver, use 'bounded Gauss' to ensure boundedness.
    To remove this warning switch off 'warnUnboundedGauss' in "/opt/openfoam231/etc/controlDict"
smoothSolver:  Solving for k, Initial residual = 0.03585170967, Final residual = 0.00266709495, No Iterations 2
ExecutionTime = 3.18 s  ClockTime = 4 s

Time = 17

smoothSolver:  Solving for Ux, Initial residual = 0.01848501408, Final residual = 0.001841145069, No Iterations 2
smoothSolver:  Solving for Uy, Initial residual = 0.02159222055, Final residual = 0.0008983933527, No Iterations 3
smoothSolver:  Solving for Uz, Initial residual = 0.0794943302, Final residual = 0.003491980954, No Iterations 3
smoothSolver:  Solving for T, Initial residual = 0.02382728708, Final residual = 0.001081022251, No Iterations 3
GAMG:  Solving for p_rgh, Initial residual = 0.3144776958, Final residual = 0.002981116113, No Iterations 7
time step continuity errors : sum local = 0.174291238, global = -0.001645457264, cumulative = -0.03845094955
--> FOAM Warning : 
    From function gaussConvectionScheme
    in file finiteVolume/convectionSchemes/gaussConvectionScheme/gaussConvectionScheme.H at line 123
    Reading "/home/ami/Desktop/virtauslaskenta/etukateenTehty/cliVersion/system/fvSchemes.divSchemes.div(phi,omega)" at line 47
    Unbounded 'Gauss' div scheme used in steady-state solver, use 'bounded Gauss' to ensure boundedness.
    To remove this warning switch off 'warnUnboundedGauss' in "/opt/openfoam231/etc/controlDict"
smoothSolver:  Solving for omega, Initial residual = 0.007898098109, Final residual = 0.0007345371599, No Iterations 2
--> FOAM Warning : 
    From function gaussConvectionScheme
    in file finiteVolume/convectionSchemes/gaussConvectionScheme/gaussConvectionScheme.H at line 123
    Reading "/home/ami/Desktop/virtauslaskenta/etukateenTehty/cliVersion/system/fvSchemes.divSchemes.div(phi,k)" at line 43
    Unbounded 'Gauss' div scheme used in steady-state solver, use 'bounded Gauss' to ensure boundedness.
    To remove this warning switch off 'warnUnboundedGauss' in "/opt/openfoam231/etc/controlDict"
smoothSolver:  Solving for k, Initial residual = 0.03408487191, Final residual = 0.00272124339, No Iterations 2
ExecutionTime = 3.35 s  ClockTime = 4 s

Time = 18

smoothSolver:  Solving for Ux, Initial residual = 0.02395725687, Final residual = 0.001027509296, No Iterations 3
smoothSolver:  Solving for Uy, Initial residual = 0.02369603878, Final residual = 0.00107400203, No Iterations 3
smoothSolver:  Solving for Uz, Initial residual = 0.07044493689, Final residual = 0.002905561144, No Iterations 3
smoothSolver:  Solving for T, Initial residual = 0.02222867636, Final residual = 0.001042187087, No Iterations 3
GAMG:  Solving for p_rgh, Initial residual = 0.2098747466, Final residual = 0.001860436431, No Iterations 7
time step continuity errors : sum local = 0.1551805458, global = 0.002847243128, cumulative = -0.03560370642
--> FOAM Warning : 
    From function gaussConvectionScheme
    in file finiteVolume/convectionSchemes/gaussConvectionScheme/gaussConvectionScheme.H at line 123
    Reading "/home/ami/Desktop/virtauslaskenta/etukateenTehty/cliVersion/system/fvSchemes.divSchemes.div(phi,omega)" at line 47
    Unbounded 'Gauss' div scheme used in steady-state solver, use 'bounded Gauss' to ensure boundedness.
    To remove this warning switch off 'warnUnboundedGauss' in "/opt/openfoam231/etc/controlDict"
smoothSolver:  Solving for omega, Initial residual = 0.00738195366, Final residual = 0.0007093352346, No Iterations 2
--> FOAM Warning : 
    From function gaussConvectionScheme
    in file finiteVolume/convectionSchemes/gaussConvectionScheme/gaussConvectionScheme.H at line 123
    Reading "/home/ami/Desktop/virtauslaskenta/etukateenTehty/cliVersion/system/fvSchemes.divSchemes.div(phi,k)" at line 43
    Unbounded 'Gauss' div scheme used in steady-state solver, use 'bounded Gauss' to ensure boundedness.
    To remove this warning switch off 'warnUnboundedGauss' in "/opt/openfoam231/etc/controlDict"
smoothSolver:  Solving for k, Initial residual = 0.03429210714, Final residual = 0.002671760605, No Iterations 2
ExecutionTime = 3.53 s  ClockTime = 4 s

Time = 19

smoothSolver:  Solving for Ux, Initial residual = 0.01593893614, Final residual = 0.0007246236942, No Iterations 3
smoothSolver:  Solving for Uy, Initial residual = 0.01615834891, Final residual = 0.0006882102925, No Iterations 3
smoothSolver:  Solving for Uz, Initial residual = 0.06380928478, Final residual = 0.002660635404, No Iterations 3
smoothSolver:  Solving for T, Initial residual = 0.02080188124, Final residual = 0.000963459722, No Iterations 3
GAMG:  Solving for p_rgh, Initial residual = 0.2907466246, Final residual = 0.002881785269, No Iterations 7
time step continuity errors : sum local = 0.1595226994, global = 0.00373697437, cumulative = -0.03186673205
--> FOAM Warning : 
    From function gaussConvectionScheme
    in file finiteVolume/convectionSchemes/gaussConvectionScheme/gaussConvectionScheme.H at line 123
    Reading "/home/ami/Desktop/virtauslaskenta/etukateenTehty/cliVersion/system/fvSchemes.divSchemes.div(phi,omega)" at line 47
    Unbounded 'Gauss' div scheme used in steady-state solver, use 'bounded Gauss' to ensure boundedness.
    To remove this warning switch off 'warnUnboundedGauss' in "/opt/openfoam231/etc/controlDict"
smoothSolver:  Solving for omega, Initial residual = 0.006402962996, Final residual = 0.0006188092642, No Iterations 2
--> FOAM Warning : 
    From function gaussConvectionScheme
    in file finiteVolume/convectionSchemes/gaussConvectionScheme/gaussConvectionScheme.H at line 123
    Reading "/home/ami/Desktop/virtauslaskenta/etukateenTehty/cliVersion/system/fvSchemes.divSchemes.div(phi,k)" at line 43
    Unbounded 'Gauss' div scheme used in steady-state solver, use 'bounded Gauss' to ensure boundedness.
    To remove this warning switch off 'warnUnboundedGauss' in "/opt/openfoam231/etc/controlDict"
smoothSolver:  Solving for k, Initial residual = 0.03158455118, Final residual = 0.002551546819, No Iterations 2
ExecutionTime = 3.7 s  ClockTime = 4 s

Time = 20

smoothSolver:  Solving for Ux, Initial residual = 0.0154379774, Final residual = 0.001533483422, No Iterations 2
smoothSolver:  Solving for Uy, Initial residual = 0.01520741338, Final residual = 0.0007042990343, No Iterations 3
smoothSolver:  Solving for Uz, Initial residual = 0.06026846042, Final residual = 0.002529399251, No Iterations 3
smoothSolver:  Solving for T, Initial residual = 0.01979049264, Final residual = 0.0008983095833, No Iterations 3
GAMG:  Solving for p_rgh, Initial residual = 0.2371543119, Final residual = 0.001582508736, No Iterations 7
time step continuity errors : sum local = 0.09476772818, global = 0.000144038392, cumulative = -0.03172269366
--> FOAM Warning : 
    From function gaussConvectionScheme
    in file finiteVolume/convectionSchemes/gaussConvectionScheme/gaussConvectionScheme.H at line 123
    Reading "/home/ami/Desktop/virtauslaskenta/etukateenTehty/cliVersion/system/fvSchemes.divSchemes.div(phi,omega)" at line 47
    Unbounded 'Gauss' div scheme used in steady-state solver, use 'bounded Gauss' to ensure boundedness.
    To remove this warning switch off 'warnUnboundedGauss' in "/opt/openfoam231/etc/controlDict"
smoothSolver:  Solving for omega, Initial residual = 0.005905630915, Final residual = 0.000573780249, No Iterations 2
--> FOAM Warning : 
    From function gaussConvectionScheme
    in file finiteVolume/convectionSchemes/gaussConvectionScheme/gaussConvectionScheme.H at line 123
    Reading "/home/ami/Desktop/virtauslaskenta/etukateenTehty/cliVersion/system/fvSchemes.divSchemes.div(phi,k)" at line 43
    Unbounded 'Gauss' div scheme used in steady-state solver, use 'bounded Gauss' to ensure boundedness.
    To remove this warning switch off 'warnUnboundedGauss' in "/opt/openfoam231/etc/controlDict"
smoothSolver:  Solving for k, Initial residual = 0.02949643011, Final residual = 0.002520337512, No Iterations 2
ExecutionTime = 3.88 s  ClockTime = 4 s

Time = 21

smoothSolver:  Solving for Ux, Initial residual = 0.01598457792, Final residual = 0.0006911292376, No Iterations 3
smoothSolver:  Solving for Uy, Initial residual = 0.01691047801, Final residual = 0.0007895495601, No Iterations 3
smoothSolver:  Solving for Uz, Initial residual = 0.05522649979, Final residual = 0.002401269513, No Iterations 3
smoothSolver:  Solving for T, Initial residual = 0.01880416366, Final residual = 0.0008396682708, No Iterations 3
GAMG:  Solving for p_rgh, Initial residual = 0.1881888226, Final residual = 0.001427791904, No Iterations 7
time step continuity errors : sum local = 0.1001637622, global = -0.0004119300088, cumulative = -0.03213462366
--> FOAM Warning : 
    From function gaussConvectionScheme
    in file finiteVolume/convectionSchemes/gaussConvectionScheme/gaussConvectionScheme.H at line 123
    Reading "/home/ami/Desktop/virtauslaskenta/etukateenTehty/cliVersion/system/fvSchemes.divSchemes.div(phi,omega)" at line 47
    Unbounded 'Gauss' div scheme used in steady-state solver, use 'bounded Gauss' to ensure boundedness.
    To remove this warning switch off 'warnUnboundedGauss' in "/opt/openfoam231/etc/controlDict"
smoothSolver:  Solving for omega, Initial residual = 0.005381812742, Final residual = 0.000526781133, No Iterations 2
--> FOAM Warning : 
    From function gaussConvectionScheme
    in file finiteVolume/convectionSchemes/gaussConvectionScheme/gaussConvectionScheme.H at line 123
    Reading "/home/ami/Desktop/virtauslaskenta/etukateenTehty/cliVersion/system/fvSchemes.divSchemes.div(phi,k)" at line 43
    Unbounded 'Gauss' div scheme used in steady-state solver, use 'bounded Gauss' to ensure boundedness.
    To remove this warning switch off 'warnUnboundedGauss' in "/opt/openfoam231/etc/controlDict"
smoothSolver:  Solving for k, Initial residual = 0.03020626123, Final residual = 0.002585501041, No Iterations 2
ExecutionTime = 4.05 s  ClockTime = 5 s

Time = 22

smoothSolver:  Solving for Ux, Initial residual = 0.01210415287, Final residual = 0.0005366797481, No Iterations 3
smoothSolver:  Solving for Uy, Initial residual = 0.01494796502, Final residual = 0.0006609433512, No Iterations 3
smoothSolver:  Solving for Uz, Initial residual = 0.05194496939, Final residual = 0.002372373384, No Iterations 3
smoothSolver:  Solving for T, Initial residual = 0.01779284712, Final residual = 0.0007714231423, No Iterations 3
GAMG:  Solving for p_rgh, Initial residual = 0.2345639012, Final residual = 0.001910409068, No Iterations 7
time step continuity errors : sum local = 0.09938357392, global = -0.001435748719, cumulative = -0.03357037238
--> FOAM Warning : 
    From function gaussConvectionScheme
    in file finiteVolume/convectionSchemes/gaussConvectionScheme/gaussConvectionScheme.H at line 123
    Reading "/home/ami/Desktop/virtauslaskenta/etukateenTehty/cliVersion/system/fvSchemes.divSchemes.div(phi,omega)" at line 47
    Unbounded 'Gauss' div scheme used in steady-state solver, use 'bounded Gauss' to ensure boundedness.
    To remove this warning switch off 'warnUnboundedGauss' in "/opt/openfoam231/etc/controlDict"
smoothSolver:  Solving for omega, Initial residual = 0.00492716198, Final residual = 0.0004817393503, No Iterations 2
--> FOAM Warning : 
    From function gaussConvectionScheme
    in file finiteVolume/convectionSchemes/gaussConvectionScheme/gaussConvectionScheme.H at line 123
    Reading "/home/ami/Desktop/virtauslaskenta/etukateenTehty/cliVersion/system/fvSchemes.divSchemes.div(phi,k)" at line 43
    Unbounded 'Gauss' div scheme used in steady-state solver, use 'bounded Gauss' to ensure boundedness.
    To remove this warning switch off 'warnUnboundedGauss' in "/opt/openfoam231/etc/controlDict"
smoothSolver:  Solving for k, Initial residual = 0.03050455902, Final residual = 0.002621124021, No Iterations 2
ExecutionTime = 4.23 s  ClockTime = 5 s

Time = 23

smoothSolver:  Solving for Ux, Initial residual = 0.01214771019, Final residual = 0.0005124163636, No Iterations 3
smoothSolver:  Solving for Uy, Initial residual = 0.01284835883, Final residual = 0.0005459178666, No Iterations 3
smoothSolver:  Solving for Uz, Initial residual = 0.04881282334, Final residual = 0.002294960506, No Iterations 3
smoothSolver:  Solving for T, Initial residual = 0.01704599666, Final residual = 0.0007238354911, No Iterations 3
GAMG:  Solving for p_rgh, Initial residual = 0.2581339173, Final residual = 0.002068143901, No Iterations 6
time step continuity errors : sum local = 0.09096816729, global = 0.0007059153, cumulative = -0.03286445708
--> FOAM Warning : 
    From function gaussConvectionScheme
    in file finiteVolume/convectionSchemes/gaussConvectionScheme/gaussConvectionScheme.H at line 123
    Reading "/home/ami/Desktop/virtauslaskenta/etukateenTehty/cliVersion/system/fvSchemes.divSchemes.div(phi,omega)" at line 47
    Unbounded 'Gauss' div scheme used in steady-state solver, use 'bounded Gauss' to ensure boundedness.
    To remove this warning switch off 'warnUnboundedGauss' in "/opt/openfoam231/etc/controlDict"
smoothSolver:  Solving for omega, Initial residual = 0.004755843114, Final residual = 0.0004579407424, No Iterations 2
--> FOAM Warning : 
    From function gaussConvectionScheme
    in file finiteVolume/convectionSchemes/gaussConvectionScheme/gaussConvectionScheme.H at line 123
    Reading "/home/ami/Desktop/virtauslaskenta/etukateenTehty/cliVersion/system/fvSchemes.divSchemes.div(phi,k)" at line 43
    Unbounded 'Gauss' div scheme used in steady-state solver, use 'bounded Gauss' to ensure boundedness.
    To remove this warning switch off 'warnUnboundedGauss' in "/opt/openfoam231/etc/controlDict"
smoothSolver:  Solving for k, Initial residual = 0.03013455557, Final residual = 0.002568921349, No Iterations 2
ExecutionTime = 4.4 s  ClockTime = 5 s

Time = 24

smoothSolver:  Solving for Ux, Initial residual = 0.01189537591, Final residual = 0.0005011946054, No Iterations 3
smoothSolver:  Solving for Uy, Initial residual = 0.01149663323, Final residual = 0.0004929168268, No Iterations 3
smoothSolver:  Solving for Uz, Initial residual = 0.04501381064, Final residual = 0.002150373041, No Iterations 3
smoothSolver:  Solving for T, Initial residual = 0.01643587356, Final residual = 0.0006945763864, No Iterations 3
GAMG:  Solving for p_rgh, Initial residual = 0.2141785201, Final residual = 0.001891923717, No Iterations 6
time step continuity errors : sum local = 0.09212826171, global = -0.001406277115, cumulative = -0.0342707342
--> FOAM Warning : 
    From function gaussConvectionScheme
    in file finiteVolume/convectionSchemes/gaussConvectionScheme/gaussConvectionScheme.H at line 123
    Reading "/home/ami/Desktop/virtauslaskenta/etukateenTehty/cliVersion/system/fvSchemes.divSchemes.div(phi,omega)" at line 47
    Unbounded 'Gauss' div scheme used in steady-state solver, use 'bounded Gauss' to ensure boundedness.
    To remove this warning switch off 'warnUnboundedGauss' in "/opt/openfoam231/etc/controlDict"
smoothSolver:  Solving for omega, Initial residual = 0.004485963608, Final residual = 0.0004297024035, No Iterations 2
--> FOAM Warning : 
    From function gaussConvectionScheme
    in file finiteVolume/convectionSchemes/gaussConvectionScheme/gaussConvectionScheme.H at line 123
    Reading "/home/ami/Desktop/virtauslaskenta/etukateenTehty/cliVersion/system/fvSchemes.divSchemes.div(phi,k)" at line 43
    Unbounded 'Gauss' div scheme used in steady-state solver, use 'bounded Gauss' to ensure boundedness.
    To remove this warning switch off 'warnUnboundedGauss' in "/opt/openfoam231/etc/controlDict"
smoothSolver:  Solving for k, Initial residual = 0.02951309468, Final residual = 0.002474827008, No Iterations 2
ExecutionTime = 4.58 s  ClockTime = 5 s

Time = 25

smoothSolver:  Solving for Ux, Initial residual = 0.01057263777, Final residual = 0.001045369501, No Iterations 2
smoothSolver:  Solving for Uy, Initial residual = 0.01030938633, Final residual = 0.0004343629716, No Iterations 3
smoothSolver:  Solving for Uz, Initial residual = 0.04233817445, Final residual = 0.002003446286, No Iterations 3
smoothSolver:  Solving for T, Initial residual = 0.01578115769, Final residual = 0.0006679467552, No Iterations 3
GAMG:  Solving for p_rgh, Initial residual = 0.2598878278, Final residual = 0.00152230778, No Iterations 7
time step continuity errors : sum local = 0.05629955716, global = 0.0001906151148, cumulative = -0.03408011908
--> FOAM Warning : 
    From function gaussConvectionScheme
    in file finiteVolume/convectionSchemes/gaussConvectionScheme/gaussConvectionScheme.H at line 123
    Reading "/home/ami/Desktop/virtauslaskenta/etukateenTehty/cliVersion/system/fvSchemes.divSchemes.div(phi,omega)" at line 47
    Unbounded 'Gauss' div scheme used in steady-state solver, use 'bounded Gauss' to ensure boundedness.
    To remove this warning switch off 'warnUnboundedGauss' in "/opt/openfoam231/etc/controlDict"
smoothSolver:  Solving for omega, Initial residual = 0.004195078987, Final residual = 0.0003889359394, No Iterations 2
--> FOAM Warning : 
    From function gaussConvectionScheme
    in file finiteVolume/convectionSchemes/gaussConvectionScheme/gaussConvectionScheme.H at line 123
    Reading "/home/ami/Desktop/virtauslaskenta/etukateenTehty/cliVersion/system/fvSchemes.divSchemes.div(phi,k)" at line 43
    Unbounded 'Gauss' div scheme used in steady-state solver, use 'bounded Gauss' to ensure boundedness.
    To remove this warning switch off 'warnUnboundedGauss' in "/opt/openfoam231/etc/controlDict"
smoothSolver:  Solving for k, Initial residual = 0.02851824286, Final residual = 0.002365979369, No Iterations 2
ExecutionTime = 4.75 s  ClockTime = 5 s

Time = 26

smoothSolver:  Solving for Ux, Initial residual = 0.01063497243, Final residual = 0.0004341399319, No Iterations 3
smoothSolver:  Solving for Uy, Initial residual = 0.01015732169, Final residual = 0.0004491790995, No Iterations 3
smoothSolver:  Solving for Uz, Initial residual = 0.04048961673, Final residual = 0.001917546716, No Iterations 3
smoothSolver:  Solving for T, Initial residual = 0.01520696704, Final residual = 0.0006612440263, No Iterations 3
GAMG:  Solving for p_rgh, Initial residual = 0.1983591861, Final residual = 0.001634549081, No Iterations 6
time step continuity errors : sum local = 0.07750995833, global = -0.0002994887048, cumulative = -0.03437960779
--> FOAM Warning : 
    From function gaussConvectionScheme
    in file finiteVolume/convectionSchemes/gaussConvectionScheme/gaussConvectionScheme.H at line 123
    Reading "/home/ami/Desktop/virtauslaskenta/etukateenTehty/cliVersion/system/fvSchemes.divSchemes.div(phi,omega)" at line 47
    Unbounded 'Gauss' div scheme used in steady-state solver, use 'bounded Gauss' to ensure boundedness.
    To remove this warning switch off 'warnUnboundedGauss' in "/opt/openfoam231/etc/controlDict"
smoothSolver:  Solving for omega, Initial residual = 0.003946540724, Final residual = 0.0003527845634, No Iterations 2
--> FOAM Warning : 
    From function gaussConvectionScheme
    in file finiteVolume/convectionSchemes/gaussConvectionScheme/gaussConvectionScheme.H at line 123
    Reading "/home/ami/Desktop/virtauslaskenta/etukateenTehty/cliVersion/system/fvSchemes.divSchemes.div(phi,k)" at line 43
    Unbounded 'Gauss' div scheme used in steady-state solver, use 'bounded Gauss' to ensure boundedness.
    To remove this warning switch off 'warnUnboundedGauss' in "/opt/openfoam231/etc/controlDict"
smoothSolver:  Solving for k, Initial residual = 0.02836939963, Final residual = 0.002286712707, No Iterations 2
ExecutionTime = 4.92 s  ClockTime = 5 s

Time = 27

smoothSolver:  Solving for Ux, Initial residual = 0.01055137696, Final residual = 0.0004411718468, No Iterations 3
smoothSolver:  Solving for Uy, Initial residual = 0.01042859471, Final residual = 0.0004591787722, No Iterations 3
smoothSolver:  Solving for Uz, Initial residual = 0.038374702, Final residual = 0.001806798614, No Iterations 3
smoothSolver:  Solving for T, Initial residual = 0.01466669066, Final residual = 0.0006208507021, No Iterations 3
GAMG:  Solving for p_rgh, Initial residual = 0.1825244496, Final residual = 0.001496253601, No Iterations 6
time step continuity errors : sum local = 0.07294541919, global = 0.000172280755, cumulative = -0.03420732703
--> FOAM Warning : 
    From function gaussConvectionScheme
    in file finiteVolume/convectionSchemes/gaussConvectionScheme/gaussConvectionScheme.H at line 123
    Reading "/home/ami/Desktop/virtauslaskenta/etukateenTehty/cliVersion/system/fvSchemes.divSchemes.div(phi,omega)" at line 47
    Unbounded 'Gauss' div scheme used in steady-state solver, use 'bounded Gauss' to ensure boundedness.
    To remove this warning switch off 'warnUnboundedGauss' in "/opt/openfoam231/etc/controlDict"
smoothSolver:  Solving for omega, Initial residual = 0.00369824166, Final residual = 0.0003251785425, No Iterations 2
--> FOAM Warning : 
    From function gaussConvectionScheme
    in file finiteVolume/convectionSchemes/gaussConvectionScheme/gaussConvectionScheme.H at line 123
    Reading "/home/ami/Desktop/virtauslaskenta/etukateenTehty/cliVersion/system/fvSchemes.divSchemes.div(phi,k)" at line 43
    Unbounded 'Gauss' div scheme used in steady-state solver, use 'bounded Gauss' to ensure boundedness.
    To remove this warning switch off 'warnUnboundedGauss' in "/opt/openfoam231/etc/controlDict"
smoothSolver:  Solving for k, Initial residual = 0.02868926039, Final residual = 0.002242731042, No Iterations 2
ExecutionTime = 5.1 s  ClockTime = 6 s

Time = 28

smoothSolver:  Solving for Ux, Initial residual = 0.01002594405, Final residual = 0.0004036864228, No Iterations 3
smoothSolver:  Solving for Uy, Initial residual = 0.009669732739, Final residual = 0.0004220563123, No Iterations 3
smoothSolver:  Solving for Uz, Initial residual = 0.03630460107, Final residual = 0.001669075083, No Iterations 3
smoothSolver:  Solving for T, Initial residual = 0.01414060693, Final residual = 0.0005850835275, No Iterations 3
GAMG:  Solving for p_rgh, Initial residual = 0.1964363243, Final residual = 0.001392146947, No Iterations 6
time step continuity errors : sum local = 0.0584285536, global = -6.006077552e-05, cumulative = -0.03426738781
--> FOAM Warning : 
    From function gaussConvectionScheme
    in file finiteVolume/convectionSchemes/gaussConvectionScheme/gaussConvectionScheme.H at line 123
    Reading "/home/ami/Desktop/virtauslaskenta/etukateenTehty/cliVersion/system/fvSchemes.divSchemes.div(phi,omega)" at line 47
    Unbounded 'Gauss' div scheme used in steady-state solver, use 'bounded Gauss' to ensure boundedness.
    To remove this warning switch off 'warnUnboundedGauss' in "/opt/openfoam231/etc/controlDict"
smoothSolver:  Solving for omega, Initial residual = 0.003542273597, Final residual = 0.000312763787, No Iterations 2
--> FOAM Warning : 
    From function gaussConvectionScheme
    in file finiteVolume/convectionSchemes/gaussConvectionScheme/gaussConvectionScheme.H at line 123
    Reading "/home/ami/Desktop/virtauslaskenta/etukateenTehty/cliVersion/system/fvSchemes.divSchemes.div(phi,k)" at line 43
    Unbounded 'Gauss' div scheme used in steady-state solver, use 'bounded Gauss' to ensure boundedness.
    To remove this warning switch off 'warnUnboundedGauss' in "/opt/openfoam231/etc/controlDict"
smoothSolver:  Solving for k, Initial residual = 0.02899782101, Final residual = 0.002214197388, No Iterations 2
ExecutionTime = 5.27 s  ClockTime = 6 s

Time = 29

smoothSolver:  Solving for Ux, Initial residual = 0.00954653558, Final residual = 0.0009088287669, No Iterations 2
smoothSolver:  Solving for Uy, Initial residual = 0.008508123415, Final residual = 0.0003664479713, No Iterations 3
smoothSolver:  Solving for Uz, Initial residual = 0.03465512186, Final residual = 0.001589173918, No Iterations 3
smoothSolver:  Solving for T, Initial residual = 0.01380835208, Final residual = 0.000567620756, No Iterations 3
GAMG:  Solving for p_rgh, Initial residual = 0.2148188272, Final residual = 0.001211050777, No Iterations 6
time step continuity errors : sum local = 0.04337646037, global = -1.338108402e-05, cumulative = -0.03428076889
--> FOAM Warning : 
    From function gaussConvectionScheme
    in file finiteVolume/convectionSchemes/gaussConvectionScheme/gaussConvectionScheme.H at line 123
    Reading "/home/ami/Desktop/virtauslaskenta/etukateenTehty/cliVersion/system/fvSchemes.divSchemes.div(phi,omega)" at line 47
    Unbounded 'Gauss' div scheme used in steady-state solver, use 'bounded Gauss' to ensure boundedness.
    To remove this warning switch off 'warnUnboundedGauss' in "/opt/openfoam231/etc/controlDict"
smoothSolver:  Solving for omega, Initial residual = 0.003404099722, Final residual = 0.0003017833309, No Iterations 2
--> FOAM Warning : 
    From function gaussConvectionScheme
    in file finiteVolume/convectionSchemes/gaussConvectionScheme/gaussConvectionScheme.H at line 123
    Reading "/home/ami/Desktop/virtauslaskenta/etukateenTehty/cliVersion/system/fvSchemes.divSchemes.div(phi,k)" at line 43
    Unbounded 'Gauss' div scheme used in steady-state solver, use 'bounded Gauss' to ensure boundedness.
    To remove this warning switch off 'warnUnboundedGauss' in "/opt/openfoam231/etc/controlDict"
smoothSolver:  Solving for k, Initial residual = 0.0290023701, Final residual = 0.00216884869, No Iterations 2
ExecutionTime = 5.44 s  ClockTime = 6 s

Time = 30

smoothSolver:  Solving for Ux, Initial residual = 0.009284014669, Final residual = 0.0008737374357, No Iterations 2
smoothSolver:  Solving for Uy, Initial residual = 0.007752108136, Final residual = 0.0003252667602, No Iterations 3
smoothSolver:  Solving for Uz, Initial residual = 0.03305404885, Final residual = 0.001558639909, No Iterations 3
smoothSolver:  Solving for T, Initial residual = 0.01322758169, Final residual = 0.0005278465235, No Iterations 3
GAMG:  Solving for p_rgh, Initial residual = 0.1956832609, Final residual = 0.001244281675, No Iterations 6
time step continuity errors : sum local = 0.04466062358, global = -0.0002202407979, cumulative = -0.03450100969
--> FOAM Warning : 
    From function gaussConvectionScheme
    in file finiteVolume/convectionSchemes/gaussConvectionScheme/gaussConvectionScheme.H at line 123
    Reading "/home/ami/Desktop/virtauslaskenta/etukateenTehty/cliVersion/system/fvSchemes.divSchemes.div(phi,omega)" at line 47
    Unbounded 'Gauss' div scheme used in steady-state solver, use 'bounded Gauss' to ensure boundedness.
    To remove this warning switch off 'warnUnboundedGauss' in "/opt/openfoam231/etc/controlDict"
smoothSolver:  Solving for omega, Initial residual = 0.003241224197, Final residual = 0.000288557603, No Iterations 2
--> FOAM Warning : 
    From function gaussConvectionScheme
    in file finiteVolume/convectionSchemes/gaussConvectionScheme/gaussConvectionScheme.H at line 123
    Reading "/home/ami/Desktop/virtauslaskenta/etukateenTehty/cliVersion/system/fvSchemes.divSchemes.div(phi,k)" at line 43
    Unbounded 'Gauss' div scheme used in steady-state solver, use 'bounded Gauss' to ensure boundedness.
    To remove this warning switch off 'warnUnboundedGauss' in "/opt/openfoam231/etc/controlDict"
smoothSolver:  Solving for k, Initial residual = 0.02889307523, Final residual = 0.002112911865, No Iterations 2
ExecutionTime = 5.62 s  ClockTime = 6 s

Time = 31

smoothSolver:  Solving for Ux, Initial residual = 0.009378126263, Final residual = 0.0009194490487, No Iterations 2
smoothSolver:  Solving for Uy, Initial residual = 0.00762512299, Final residual = 0.0003105429591, No Iterations 3
smoothSolver:  Solving for Uz, Initial residual = 0.0314395458, Final residual = 0.001506936027, No Iterations 3
smoothSolver:  Solving for T, Initial residual = 0.01290815965, Final residual = 0.0004989701618, No Iterations 3
GAMG:  Solving for p_rgh, Initial residual = 0.1637341261, Final residual = 0.0009062686299, No Iterations 6
time step continuity errors : sum local = 0.03685161758, global = 8.852653112e-06, cumulative = -0.03449215704
--> FOAM Warning : 
    From function gaussConvectionScheme
    in file finiteVolume/convectionSchemes/gaussConvectionScheme/gaussConvectionScheme.H at line 123
    Reading "/home/ami/Desktop/virtauslaskenta/etukateenTehty/cliVersion/system/fvSchemes.divSchemes.div(phi,omega)" at line 47
    Unbounded 'Gauss' div scheme used in steady-state solver, use 'bounded Gauss' to ensure boundedness.
    To remove this warning switch off 'warnUnboundedGauss' in "/opt/openfoam231/etc/controlDict"
smoothSolver:  Solving for omega, Initial residual = 0.003108827886, Final residual = 0.000277787756, No Iterations 2
--> FOAM Warning : 
    From function gaussConvectionScheme
    in file finiteVolume/convectionSchemes/gaussConvectionScheme/gaussConvectionScheme.H at line 123
    Reading "/home/ami/Desktop/virtauslaskenta/etukateenTehty/cliVersion/system/fvSchemes.divSchemes.div(phi,k)" at line 43
    Unbounded 'Gauss' div scheme used in steady-state solver, use 'bounded Gauss' to ensure boundedness.
    To remove this warning switch off 'warnUnboundedGauss' in "/opt/openfoam231/etc/controlDict"
smoothSolver:  Solving for k, Initial residual = 0.0290263782, Final residual = 0.002066972245, No Iterations 2
ExecutionTime = 5.79 s  ClockTime = 6 s

Time = 32

smoothSolver:  Solving for Ux, Initial residual = 0.009569977707, Final residual = 0.0003837938567, No Iterations 3
smoothSolver:  Solving for Uy, Initial residual = 0.007734262706, Final residual = 0.0003165810793, No Iterations 3
smoothSolver:  Solving for Uz, Initial residual = 0.0302169809, Final residual = 0.001435253734, No Iterations 3
smoothSolver:  Solving for T, Initial residual = 0.01242258512, Final residual = 0.0004839124329, No Iterations 3
GAMG:  Solving for p_rgh, Initial residual = 0.146196053, Final residual = 0.001319693829, No Iterations 5
time step continuity errors : sum local = 0.0595736293, global = 0.0002664291974, cumulative = -0.03422572784
--> FOAM Warning : 
    From function gaussConvectionScheme
    in file finiteVolume/convectionSchemes/gaussConvectionScheme/gaussConvectionScheme.H at line 123
    Reading "/home/ami/Desktop/virtauslaskenta/etukateenTehty/cliVersion/system/fvSchemes.divSchemes.div(phi,omega)" at line 47
    Unbounded 'Gauss' div scheme used in steady-state solver, use 'bounded Gauss' to ensure boundedness.
    To remove this warning switch off 'warnUnboundedGauss' in "/opt/openfoam231/etc/controlDict"
smoothSolver:  Solving for omega, Initial residual = 0.003006254768, Final residual = 0.0002696797709, No Iterations 2
--> FOAM Warning : 
    From function gaussConvectionScheme
    in file finiteVolume/convectionSchemes/gaussConvectionScheme/gaussConvectionScheme.H at line 123
    Reading "/home/ami/Desktop/virtauslaskenta/etukateenTehty/cliVersion/system/fvSchemes.divSchemes.div(phi,k)" at line 43
    Unbounded 'Gauss' div scheme used in steady-state solver, use 'bounded Gauss' to ensure boundedness.
    To remove this warning switch off 'warnUnboundedGauss' in "/opt/openfoam231/etc/controlDict"
smoothSolver:  Solving for k, Initial residual = 0.02943118491, Final residual = 0.002035777748, No Iterations 2
ExecutionTime = 5.96 s  ClockTime = 7 s

Time = 33

smoothSolver:  Solving for Ux, Initial residual = 0.009341842143, Final residual = 0.0009254951245, No Iterations 2
smoothSolver:  Solving for Uy, Initial residual = 0.007740200249, Final residual = 0.0003198553061, No Iterations 3
smoothSolver:  Solving for Uz, Initial residual = 0.02960277072, Final residual = 0.001399858009, No Iterations 3
smoothSolver:  Solving for T, Initial residual = 0.01206988667, Final residual = 0.0004602371688, No Iterations 3
GAMG:  Solving for p_rgh, Initial residual = 0.1381398202, Final residual = 0.001342882697, No Iterations 5
time step continuity errors : sum local = 0.06139696667, global = 0.0005835226596, cumulative = -0.03364220518
--> FOAM Warning : 
    From function gaussConvectionScheme
    in file finiteVolume/convectionSchemes/gaussConvectionScheme/gaussConvectionScheme.H at line 123
    Reading "/home/ami/Desktop/virtauslaskenta/etukateenTehty/cliVersion/system/fvSchemes.divSchemes.div(phi,omega)" at line 47
    Unbounded 'Gauss' div scheme used in steady-state solver, use 'bounded Gauss' to ensure boundedness.
    To remove this warning switch off 'warnUnboundedGauss' in "/opt/openfoam231/etc/controlDict"
smoothSolver:  Solving for omega, Initial residual = 0.002878157486, Final residual = 0.0002605029884, No Iterations 2
--> FOAM Warning : 
    From function gaussConvectionScheme
    in file finiteVolume/convectionSchemes/gaussConvectionScheme/gaussConvectionScheme.H at line 123
    Reading "/home/ami/Desktop/virtauslaskenta/etukateenTehty/cliVersion/system/fvSchemes.divSchemes.div(phi,k)" at line 43
    Unbounded 'Gauss' div scheme used in steady-state solver, use 'bounded Gauss' to ensure boundedness.
    To remove this warning switch off 'warnUnboundedGauss' in "/opt/openfoam231/etc/controlDict"
smoothSolver:  Solving for k, Initial residual = 0.02965745308, Final residual = 0.002005033681, No Iterations 2
ExecutionTime = 6.13 s  ClockTime = 7 s

Time = 34

smoothSolver:  Solving for Ux, Initial residual = 0.00901944601, Final residual = 0.0008644864808, No Iterations 2
smoothSolver:  Solving for Uy, Initial residual = 0.007270485848, Final residual = 0.0003008687383, No Iterations 3
smoothSolver:  Solving for Uz, Initial residual = 0.02901550631, Final residual = 0.001367302349, No Iterations 3
smoothSolver:  Solving for T, Initial residual = 0.0116781307, Final residual = 0.000439587882, No Iterations 3
GAMG:  Solving for p_rgh, Initial residual = 0.1356800224, Final residual = 0.001201433738, No Iterations 5
time step continuity errors : sum local = 0.05267767576, global = 2.300986547e-05, cumulative = -0.03361919531
--> FOAM Warning : 
    From function gaussConvectionScheme
    in file finiteVolume/convectionSchemes/gaussConvectionScheme/gaussConvectionScheme.H at line 123
    Reading "/home/ami/Desktop/virtauslaskenta/etukateenTehty/cliVersion/system/fvSchemes.divSchemes.div(phi,omega)" at line 47
    Unbounded 'Gauss' div scheme used in steady-state solver, use 'bounded Gauss' to ensure boundedness.
    To remove this warning switch off 'warnUnboundedGauss' in "/opt/openfoam231/etc/controlDict"
smoothSolver:  Solving for omega, Initial residual = 0.002774409975, Final residual = 0.0002542364385, No Iterations 2
--> FOAM Warning : 
    From function gaussConvectionScheme
    in file finiteVolume/convectionSchemes/gaussConvectionScheme/gaussConvectionScheme.H at line 123
    Reading "/home/ami/Desktop/virtauslaskenta/etukateenTehty/cliVersion/system/fvSchemes.divSchemes.div(phi,k)" at line 43
    Unbounded 'Gauss' div scheme used in steady-state solver, use 'bounded Gauss' to ensure boundedness.
    To remove this warning switch off 'warnUnboundedGauss' in "/opt/openfoam231/etc/controlDict"
smoothSolver:  Solving for k, Initial residual = 0.02966264158, Final residual = 0.001970552375, No Iterations 2
ExecutionTime = 6.3 s  ClockTime = 7 s

Time = 35

smoothSolver:  Solving for Ux, Initial residual = 0.008740162356, Final residual = 0.0008196067442, No Iterations 2
smoothSolver:  Solving for Uy, Initial residual = 0.006658599213, Final residual = 0.0002735385921, No Iterations 3
smoothSolver:  Solving for Uz, Initial residual = 0.02830645369, Final residual = 0.001336411687, No Iterations 3
smoothSolver:  Solving for T, Initial residual = 0.01137128954, Final residual = 0.0004329128483, No Iterations 3
GAMG:  Solving for p_rgh, Initial residual = 0.1302618598, Final residual = 0.001129202095, No Iterations 5
time step continuity errors : sum local = 0.04773572449, global = -0.0007823686896, cumulative = -0.034401564
--> FOAM Warning : 
    From function gaussConvectionScheme
    in file finiteVolume/convectionSchemes/gaussConvectionScheme/gaussConvectionScheme.H at line 123
    Reading "/home/ami/Desktop/virtauslaskenta/etukateenTehty/cliVersion/system/fvSchemes.divSchemes.div(phi,omega)" at line 47
    Unbounded 'Gauss' div scheme used in steady-state solver, use 'bounded Gauss' to ensure boundedness.
    To remove this warning switch off 'warnUnboundedGauss' in "/opt/openfoam231/etc/controlDict"
smoothSolver:  Solving for omega, Initial residual = 0.002675145454, Final residual = 0.0002476978107, No Iterations 2
--> FOAM Warning : 
    From function gaussConvectionScheme
    in file finiteVolume/convectionSchemes/gaussConvectionScheme/gaussConvectionScheme.H at line 123
    Reading "/home/ami/Desktop/virtauslaskenta/etukateenTehty/cliVersion/system/fvSchemes.divSchemes.div(phi,k)" at line 43
    Unbounded 'Gauss' div scheme used in steady-state solver, use 'bounded Gauss' to ensure boundedness.
    To remove this warning switch off 'warnUnboundedGauss' in "/opt/openfoam231/etc/controlDict"
smoothSolver:  Solving for k, Initial residual = 0.02943110053, Final residual = 0.00192983719, No Iterations 2
ExecutionTime = 6.47 s  ClockTime = 7 s

Time = 36

smoothSolver:  Solving for Ux, Initial residual = 0.008716685224, Final residual = 0.0008228423902, No Iterations 2
smoothSolver:  Solving for Uy, Initial residual = 0.006285077606, Final residual = 0.0002490927203, No Iterations 3
smoothSolver:  Solving for Uz, Initial residual = 0.0271329007, Final residual = 0.001282573138, No Iterations 3
smoothSolver:  Solving for T, Initial residual = 0.01103429704, Final residual = 0.0004035591467, No Iterations 3
GAMG:  Solving for p_rgh, Initial residual = 0.1202644598, Final residual = 0.001091273009, No Iterations 5
time step continuity errors : sum local = 0.04661912563, global = -0.001142820377, cumulative = -0.03554438438
--> FOAM Warning : 
    From function gaussConvectionScheme
    in file finiteVolume/convectionSchemes/gaussConvectionScheme/gaussConvectionScheme.H at line 123
    Reading "/home/ami/Desktop/virtauslaskenta/etukateenTehty/cliVersion/system/fvSchemes.divSchemes.div(phi,omega)" at line 47
    Unbounded 'Gauss' div scheme used in steady-state solver, use 'bounded Gauss' to ensure boundedness.
    To remove this warning switch off 'warnUnboundedGauss' in "/opt/openfoam231/etc/controlDict"
smoothSolver:  Solving for omega, Initial residual = 0.002568070186, Final residual = 0.0002386683896, No Iterations 2
--> FOAM Warning : 
    From function gaussConvectionScheme
    in file finiteVolume/convectionSchemes/gaussConvectionScheme/gaussConvectionScheme.H at line 123
    Reading "/home/ami/Desktop/virtauslaskenta/etukateenTehty/cliVersion/system/fvSchemes.divSchemes.div(phi,k)" at line 43
    Unbounded 'Gauss' div scheme used in steady-state solver, use 'bounded Gauss' to ensure boundedness.
    To remove this warning switch off 'warnUnboundedGauss' in "/opt/openfoam231/etc/controlDict"
smoothSolver:  Solving for k, Initial residual = 0.02907037732, Final residual = 0.001881005645, No Iterations 2
ExecutionTime = 6.64 s  ClockTime = 7 s

Time = 37

smoothSolver:  Solving for Ux, Initial residual = 0.008777136199, Final residual = 0.0008451681408, No Iterations 2
smoothSolver:  Solving for Uy, Initial residual = 0.00615539162, Final residual = 0.0006134434049, No Iterations 2
smoothSolver:  Solving for Uz, Initial residual = 0.02584946005, Final residual = 0.001221324486, No Iterations 3
smoothSolver:  Solving for T, Initial residual = 0.01075367971, Final residual = 0.0003928370481, No Iterations 3
GAMG:  Solving for p_rgh, Initial residual = 0.1102563839, Final residual = 0.0008905205029, No Iterations 5
time step continuity errors : sum local = 0.0397364633, global = -0.0007457705893, cumulative = -0.03629015497
--> FOAM Warning : 
    From function gaussConvectionScheme
    in file finiteVolume/convectionSchemes/gaussConvectionScheme/gaussConvectionScheme.H at line 123
    Reading "/home/ami/Desktop/virtauslaskenta/etukateenTehty/cliVersion/system/fvSchemes.divSchemes.div(phi,omega)" at line 47
    Unbounded 'Gauss' div scheme used in steady-state solver, use 'bounded Gauss' to ensure boundedness.
    To remove this warning switch off 'warnUnboundedGauss' in "/opt/openfoam231/etc/controlDict"
smoothSolver:  Solving for omega, Initial residual = 0.002468395347, Final residual = 0.0002281068227, No Iterations 2
--> FOAM Warning : 
    From function gaussConvectionScheme
    in file finiteVolume/convectionSchemes/gaussConvectionScheme/gaussConvectionScheme.H at line 123
    Reading "/home/ami/Desktop/virtauslaskenta/etukateenTehty/cliVersion/system/fvSchemes.divSchemes.div(phi,k)" at line 43
    Unbounded 'Gauss' div scheme used in steady-state solver, use 'bounded Gauss' to ensure boundedness.
    To remove this warning switch off 'warnUnboundedGauss' in "/opt/openfoam231/etc/controlDict"
smoothSolver:  Solving for k, Initial residual = 0.02872014306, Final residual = 0.001828747133, No Iterations 2
ExecutionTime = 6.81 s  ClockTime = 7 s

Time = 38

smoothSolver:  Solving for Ux, Initial residual = 0.008678410651, Final residual = 0.0008405020158, No Iterations 2
smoothSolver:  Solving for Uy, Initial residual = 0.006177856401, Final residual = 0.0002435600275, No Iterations 3
smoothSolver:  Solving for Uz, Initial residual = 0.02485332166, Final residual = 0.00115720712, No Iterations 3
smoothSolver:  Solving for T, Initial residual = 0.01043091056, Final residual = 0.0003731495471, No Iterations 3
GAMG:  Solving for p_rgh, Initial residual = 0.1050541152, Final residual = 0.0007736389239, No Iterations 5
time step continuity errors : sum local = 0.03580276304, global = -0.0002927263488, cumulative = -0.03658288132
--> FOAM Warning : 
    From function gaussConvectionScheme
    in file finiteVolume/convectionSchemes/gaussConvectionScheme/gaussConvectionScheme.H at line 123
    Reading "/home/ami/Desktop/virtauslaskenta/etukateenTehty/cliVersion/system/fvSchemes.divSchemes.div(phi,omega)" at line 47
    Unbounded 'Gauss' div scheme used in steady-state solver, use 'bounded Gauss' to ensure boundedness.
    To remove this warning switch off 'warnUnboundedGauss' in "/opt/openfoam231/etc/controlDict"
smoothSolver:  Solving for omega, Initial residual = 0.002397333296, Final residual = 0.0002197305319, No Iterations 2
--> FOAM Warning : 
    From function gaussConvectionScheme
    in file finiteVolume/convectionSchemes/gaussConvectionScheme/gaussConvectionScheme.H at line 123
    Reading "/home/ami/Desktop/virtauslaskenta/etukateenTehty/cliVersion/system/fvSchemes.divSchemes.div(phi,k)" at line 43
    Unbounded 'Gauss' div scheme used in steady-state solver, use 'bounded Gauss' to ensure boundedness.
    To remove this warning switch off 'warnUnboundedGauss' in "/opt/openfoam231/etc/controlDict"
smoothSolver:  Solving for k, Initial residual = 0.02828698329, Final residual = 0.001777914446, No Iterations 2
ExecutionTime = 6.98 s  ClockTime = 8 s

Time = 39

smoothSolver:  Solving for Ux, Initial residual = 0.008410831837, Final residual = 0.0008019534133, No Iterations 2
smoothSolver:  Solving for Uy, Initial residual = 0.005982043008, Final residual = 0.0002379895027, No Iterations 3
smoothSolver:  Solving for Uz, Initial residual = 0.02474307662, Final residual = 0.001145678929, No Iterations 3
smoothSolver:  Solving for T, Initial residual = 0.01017031462, Final residual = 0.001013573344, No Iterations 2
GAMG:  Solving for p_rgh, Initial residual = 0.1001417272, Final residual = 0.0007818426652, No Iterations 5
time step continuity errors : sum local = 0.03628837183, global = -0.0004367827475, cumulative = -0.03701966407
--> FOAM Warning : 
    From function gaussConvectionScheme
    in file finiteVolume/convectionSchemes/gaussConvectionScheme/gaussConvectionScheme.H at line 123
    Reading "/home/ami/Desktop/virtauslaskenta/etukateenTehty/cliVersion/system/fvSchemes.divSchemes.div(phi,omega)" at line 47
    Unbounded 'Gauss' div scheme used in steady-state solver, use 'bounded Gauss' to ensure boundedness.
    To remove this warning switch off 'warnUnboundedGauss' in "/opt/openfoam231/etc/controlDict"
smoothSolver:  Solving for omega, Initial residual = 0.002332268825, Final residual = 0.0002114496465, No Iterations 2
--> FOAM Warning : 
    From function gaussConvectionScheme
    in file finiteVolume/convectionSchemes/gaussConvectionScheme/gaussConvectionScheme.H at line 123
    Reading "/home/ami/Desktop/virtauslaskenta/etukateenTehty/cliVersion/system/fvSchemes.divSchemes.div(phi,k)" at line 43
    Unbounded 'Gauss' div scheme used in steady-state solver, use 'bounded Gauss' to ensure boundedness.
    To remove this warning switch off 'warnUnboundedGauss' in "/opt/openfoam231/etc/controlDict"
smoothSolver:  Solving for k, Initial residual = 0.0277999448, Final residual = 0.001729541098, No Iterations 2
ExecutionTime = 7.16 s  ClockTime = 8 s

Time = 40

smoothSolver:  Solving for Ux, Initial residual = 0.008052177404, Final residual = 0.0007526113941, No Iterations 2
smoothSolver:  Solving for Uy, Initial residual = 0.0055713506, Final residual = 0.0002200185813, No Iterations 3
smoothSolver:  Solving for Uz, Initial residual = 0.02465899328, Final residual = 0.001141445185, No Iterations 3
smoothSolver:  Solving for T, Initial residual = 0.009888118559, Final residual = 0.0009664005428, No Iterations 2
GAMG:  Solving for p_rgh, Initial residual = 0.09636088162, Final residual = 0.0007054458311, No Iterations 5
time step continuity errors : sum local = 0.03203923559, global = -0.0002778686713, cumulative = -0.03729753274
--> FOAM Warning : 
    From function gaussConvectionScheme
    in file finiteVolume/convectionSchemes/gaussConvectionScheme/gaussConvectionScheme.H at line 123
    Reading "/home/ami/Desktop/virtauslaskenta/etukateenTehty/cliVersion/system/fvSchemes.divSchemes.div(phi,omega)" at line 47
    Unbounded 'Gauss' div scheme used in steady-state solver, use 'bounded Gauss' to ensure boundedness.
    To remove this warning switch off 'warnUnboundedGauss' in "/opt/openfoam231/etc/controlDict"
smoothSolver:  Solving for omega, Initial residual = 0.002259989426, Final residual = 0.0002033940989, No Iterations 2
--> FOAM Warning : 
    From function gaussConvectionScheme
    in file finiteVolume/convectionSchemes/gaussConvectionScheme/gaussConvectionScheme.H at line 123
    Reading "/home/ami/Desktop/virtauslaskenta/etukateenTehty/cliVersion/system/fvSchemes.divSchemes.div(phi,k)" at line 43
    Unbounded 'Gauss' div scheme used in steady-state solver, use 'bounded Gauss' to ensure boundedness.
    To remove this warning switch off 'warnUnboundedGauss' in "/opt/openfoam231/etc/controlDict"
smoothSolver:  Solving for k, Initial residual = 0.02732328097, Final residual = 0.001683043236, No Iterations 2
ExecutionTime = 7.33 s  ClockTime = 8 s

Time = 41

smoothSolver:  Solving for Ux, Initial residual = 0.007755103442, Final residual = 0.0007190125803, No Iterations 2
smoothSolver:  Solving for Uy, Initial residual = 0.005182493738, Final residual = 0.0001999978409, No Iterations 3
[...]
    To remove this warning switch off 'warnUnboundedGauss' in "/opt/openfoam231/etc/controlDict"
smoothSolver:  Solving for k, Initial residual = 1.262598561e-05, Final residual = 1.086567013e-06, No Iterations 2
ExecutionTime = 26.51 s  ClockTime = 28 s

Time = 152

smoothSolver:  Solving for Ux, Initial residual = 2.195220912e-06, Final residual = 7.101389044e-07, No Iterations 1
smoothSolver:  Solving for Uy, Initial residual = 1.033090399e-06, Final residual = 3.293785628e-07, No Iterations 1
smoothSolver:  Solving for Uz, Initial residual = 5.105574219e-06, Final residual = 5.309071605e-07, No Iterations 2
smoothSolver:  Solving for T, Initial residual = 0.001615501245, Final residual = 0.0001496616177, No Iterations 2
GAMG:  Solving for p_rgh, Initial residual = 1.820266845e-05, Final residual = 1.718694062e-07, No Iterations 4
time step continuity errors : sum local = 5.596220695e-06, global = 1.585234308e-08, cumulative = -0.03624425792
--> FOAM Warning : 
    From function gaussConvectionScheme
    in file finiteVolume/convectionSchemes/gaussConvectionScheme/gaussConvectionScheme.H at line 123
    Reading "/home/ami/Desktop/virtauslaskenta/etukateenTehty/cliVersion/system/fvSchemes.divSchemes.div(phi,omega)" at line 47
    Unbounded 'Gauss' div scheme used in steady-state solver, use 'bounded Gauss' to ensure boundedness.
    To remove this warning switch off 'warnUnboundedGauss' in "/opt/openfoam231/etc/controlDict"
smoothSolver:  Solving for omega, Initial residual = 9.786193318e-07, Final residual = 2.92592205e-07, No Iterations 1
--> FOAM Warning : 
    From function gaussConvectionScheme
    in file finiteVolume/convectionSchemes/gaussConvectionScheme/gaussConvectionScheme.H at line 123
    Reading "/home/ami/Desktop/virtauslaskenta/etukateenTehty/cliVersion/system/fvSchemes.divSchemes.div(phi,k)" at line 43
    Unbounded 'Gauss' div scheme used in steady-state solver, use 'bounded Gauss' to ensure boundedness.
    To remove this warning switch off 'warnUnboundedGauss' in "/opt/openfoam231/etc/controlDict"
smoothSolver:  Solving for k, Initial residual = 1.130373424e-05, Final residual = 9.746852023e-07, No Iterations 2
ExecutionTime = 26.68 s  ClockTime = 29 s

Time = 153

smoothSolver:  Solving for Ux, Initial residual = 2.010512533e-06, Final residual = 6.547328745e-07, No Iterations 1
smoothSolver:  Solving for Uy, Initial residual = 9.670421064e-07, Final residual = 3.086868198e-07, No Iterations 1
smoothSolver:  Solving for Uz, Initial residual = 4.713373759e-06, Final residual = 4.870864036e-07, No Iterations 2
smoothSolver:  Solving for T, Initial residual = 0.00153609502, Final residual = 0.0001409299539, No Iterations 2
GAMG:  Solving for p_rgh, Initial residual = 1.650743726e-05, Final residual = 1.438821116e-07, No Iterations 4
time step continuity errors : sum local = 4.684926972e-06, global = -6.747360524e-08, cumulative = -0.03624432539
--> FOAM Warning : 
    From function gaussConvectionScheme
    in file finiteVolume/convectionSchemes/gaussConvectionScheme/gaussConvectionScheme.H at line 123
    Reading "/home/ami/Desktop/virtauslaskenta/etukateenTehty/cliVersion/system/fvSchemes.divSchemes.div(phi,omega)" at line 47
    Unbounded 'Gauss' div scheme used in steady-state solver, use 'bounded Gauss' to ensure boundedness.
    To remove this warning switch off 'warnUnboundedGauss' in "/opt/openfoam231/etc/controlDict"
smoothSolver:  Solving for omega, Initial residual = 8.869255854e-07, Final residual = 2.660380706e-07, No Iterations 1
--> FOAM Warning : 
    From function gaussConvectionScheme
    in file finiteVolume/convectionSchemes/gaussConvectionScheme/gaussConvectionScheme.H at line 123
    Reading "/home/ami/Desktop/virtauslaskenta/etukateenTehty/cliVersion/system/fvSchemes.divSchemes.div(phi,k)" at line 43
    Unbounded 'Gauss' div scheme used in steady-state solver, use 'bounded Gauss' to ensure boundedness.
    To remove this warning switch off 'warnUnboundedGauss' in "/opt/openfoam231/etc/controlDict"
smoothSolver:  Solving for k, Initial residual = 1.012032789e-05, Final residual = 8.739953457e-07, No Iterations 2
ExecutionTime = 26.85 s  ClockTime = 29 s

Time = 154

smoothSolver:  Solving for Ux, Initial residual = 1.841362307e-06, Final residual = 6.029441549e-07, No Iterations 1
smoothSolver:  Solving for Uy, Initial residual = 8.963697306e-07, Final residual = 2.869025682e-07, No Iterations 1
smoothSolver:  Solving for Uz, Initial residual = 4.372478672e-06, Final residual = 4.499067622e-07, No Iterations 2
smoothSolver:  Solving for T, Initial residual = 0.001460397056, Final residual = 0.000131756166, No Iterations 2
GAMG:  Solving for p_rgh, Initial residual = 1.511901541e-05, Final residual = 1.1350222e-07, No Iterations 4
time step continuity errors : sum local = 3.695730613e-06, global = -7.929841575e-08, cumulative = -0.03624440469
--> FOAM Warning : 
    From function gaussConvectionScheme
    in file finiteVolume/convectionSchemes/gaussConvectionScheme/gaussConvectionScheme.H at line 123
    Reading "/home/ami/Desktop/virtauslaskenta/etukateenTehty/cliVersion/system/fvSchemes.divSchemes.div(phi,omega)" at line 47
    Unbounded 'Gauss' div scheme used in steady-state solver, use 'bounded Gauss' to ensure boundedness.
    To remove this warning switch off 'warnUnboundedGauss' in "/opt/openfoam231/etc/controlDict"
smoothSolver:  Solving for omega, Initial residual = 8.04870214e-07, Final residual = 2.421579269e-07, No Iterations 1
--> FOAM Warning : 
    From function gaussConvectionScheme
    in file finiteVolume/convectionSchemes/gaussConvectionScheme/gaussConvectionScheme.H at line 123
    Reading "/home/ami/Desktop/virtauslaskenta/etukateenTehty/cliVersion/system/fvSchemes.divSchemes.div(phi,k)" at line 43
    Unbounded 'Gauss' div scheme used in steady-state solver, use 'bounded Gauss' to ensure boundedness.
    To remove this warning switch off 'warnUnboundedGauss' in "/opt/openfoam231/etc/controlDict"
smoothSolver:  Solving for k, Initial residual = 9.059671591e-06, Final residual = 7.838516233e-07, No Iterations 2
ExecutionTime = 27.02 s  ClockTime = 29 s

Time = 155

smoothSolver:  Solving for Ux, Initial residual = 1.68658738e-06, Final residual = 5.545124717e-07, No Iterations 1
smoothSolver:  Solving for Uy, Initial residual = 8.173351478e-07, Final residual = 2.624476705e-07, No Iterations 1
smoothSolver:  Solving for Uz, Initial residual = 4.035288902e-06, Final residual = 4.157900677e-07, No Iterations 2
smoothSolver:  Solving for T, Initial residual = 0.001386778493, Final residual = 0.0001242892905, No Iterations 2
GAMG:  Solving for p_rgh, Initial residual = 1.390011296e-05, Final residual = 9.931215969e-08, No Iterations 4
time step continuity errors : sum local = 3.23369062e-06, global = -7.332031796e-08, cumulative = -0.03624447801
--> FOAM Warning : 
    From function gaussConvectionScheme
    in file finiteVolume/convectionSchemes/gaussConvectionScheme/gaussConvectionScheme.H at line 123
    Reading "/home/ami/Desktop/virtauslaskenta/etukateenTehty/cliVersion/system/fvSchemes.divSchemes.div(phi,omega)" at line 47
    Unbounded 'Gauss' div scheme used in steady-state solver, use 'bounded Gauss' to ensure boundedness.
    To remove this warning switch off 'warnUnboundedGauss' in "/opt/openfoam231/etc/controlDict"
smoothSolver:  Solving for omega, Initial residual = 7.309712569e-07, Final residual = 2.205895335e-07, No Iterations 1
--> FOAM Warning : 
    From function gaussConvectionScheme
    in file finiteVolume/convectionSchemes/gaussConvectionScheme/gaussConvectionScheme.H at line 123
    Reading "/home/ami/Desktop/virtauslaskenta/etukateenTehty/cliVersion/system/fvSchemes.divSchemes.div(phi,k)" at line 43
    Unbounded 'Gauss' div scheme used in steady-state solver, use 'bounded Gauss' to ensure boundedness.
    To remove this warning switch off 'warnUnboundedGauss' in "/opt/openfoam231/etc/controlDict"
smoothSolver:  Solving for k, Initial residual = 8.106956053e-06, Final residual = 7.032464301e-07, No Iterations 2
ExecutionTime = 27.19 s  ClockTime = 29 s

Time = 156

smoothSolver:  Solving for Ux, Initial residual = 1.54482008e-06, Final residual = 5.09610835e-07, No Iterations 1
smoothSolver:  Solving for Uy, Initial residual = 7.388941987e-07, Final residual = 2.376432221e-07, No Iterations 1
smoothSolver:  Solving for Uz, Initial residual = 3.707690191e-06, Final residual = 3.841242707e-07, No Iterations 2
smoothSolver:  Solving for T, Initial residual = 0.00131439931, Final residual = 0.0001150075086, No Iterations 2
GAMG:  Solving for p_rgh, Initial residual = 1.279282454e-05, Final residual = 9.02442014e-08, No Iterations 4
time step continuity errors : sum local = 2.938431032e-06, global = -5.076516173e-08, cumulative = -0.03624452878
--> FOAM Warning : 
    From function gaussConvectionScheme
    in file finiteVolume/convectionSchemes/gaussConvectionScheme/gaussConvectionScheme.H at line 123
    Reading "/home/ami/Desktop/virtauslaskenta/etukateenTehty/cliVersion/system/fvSchemes.divSchemes.div(phi,omega)" at line 47
    Unbounded 'Gauss' div scheme used in steady-state solver, use 'bounded Gauss' to ensure boundedness.
    To remove this warning switch off 'warnUnboundedGauss' in "/opt/openfoam231/etc/controlDict"
smoothSolver:  Solving for omega, Initial residual = 6.64353519e-07, Final residual = 2.011561895e-07, No Iterations 1
--> FOAM Warning : 
    From function gaussConvectionScheme
    in file finiteVolume/convectionSchemes/gaussConvectionScheme/gaussConvectionScheme.H at line 123
    Reading "/home/ami/Desktop/virtauslaskenta/etukateenTehty/cliVersion/system/fvSchemes.divSchemes.div(phi,k)" at line 43
    Unbounded 'Gauss' div scheme used in steady-state solver, use 'bounded Gauss' to ensure boundedness.
    To remove this warning switch off 'warnUnboundedGauss' in "/opt/openfoam231/etc/controlDict"
smoothSolver:  Solving for k, Initial residual = 7.252931522e-06, Final residual = 6.305316287e-07, No Iterations 2
ExecutionTime = 27.37 s  ClockTime = 29 s

Time = 157

smoothSolver:  Solving for Ux, Initial residual = 1.413884306e-06, Final residual = 4.676364268e-07, No Iterations 1
smoothSolver:  Solving for Uy, Initial residual = 6.692810339e-07, Final residual = 2.151288675e-07, No Iterations 1
smoothSolver:  Solving for Uz, Initial residual = 3.398520744e-06, Final residual = 9.776539321e-07, No Iterations 1
smoothSolver:  Solving for T, Initial residual = 0.001238219488, Final residual = 0.0001069911466, No Iterations 2
GAMG:  Solving for p_rgh, Initial residual = 1.185280679e-05, Final residual = 8.811130853e-08, No Iterations 4
time step continuity errors : sum local = 2.868982511e-06, global = -3.19193658e-08, cumulative = -0.0362445607
--> FOAM Warning : 
    From function gaussConvectionScheme
    in file finiteVolume/convectionSchemes/gaussConvectionScheme/gaussConvectionScheme.H at line 123
    Reading "/home/ami/Desktop/virtauslaskenta/etukateenTehty/cliVersion/system/fvSchemes.divSchemes.div(phi,omega)" at line 47
    Unbounded 'Gauss' div scheme used in steady-state solver, use 'bounded Gauss' to ensure boundedness.
    To remove this warning switch off 'warnUnboundedGauss' in "/opt/openfoam231/etc/controlDict"
smoothSolver:  Solving for omega, Initial residual = 6.043714414e-07, Final residual = 1.836813423e-07, No Iterations 1
--> FOAM Warning : 
    From function gaussConvectionScheme
    in file finiteVolume/convectionSchemes/gaussConvectionScheme/gaussConvectionScheme.H at line 123
    Reading "/home/ami/Desktop/virtauslaskenta/etukateenTehty/cliVersion/system/fvSchemes.divSchemes.div(phi,k)" at line 43
    Unbounded 'Gauss' div scheme used in steady-state solver, use 'bounded Gauss' to ensure boundedness.
    To remove this warning switch off 'warnUnboundedGauss' in "/opt/openfoam231/etc/controlDict"
smoothSolver:  Solving for k, Initial residual = 6.487482395e-06, Final residual = 5.652226638e-07, No Iterations 2
ExecutionTime = 27.54 s  ClockTime = 30 s

Time = 158

smoothSolver:  Solving for Ux, Initial residual = 1.291822445e-06, Final residual = 4.283072241e-07, No Iterations 1
smoothSolver:  Solving for Uy, Initial residual = 6.03012593e-07, Final residual = 1.934824677e-07, No Iterations 1
smoothSolver:  Solving for Uz, Initial residual = 3.316492046e-06, Final residual = 9.920823693e-07, No Iterations 1
smoothSolver:  Solving for T, Initial residual = 0.001172066438, Final residual = 9.938986095e-05, No Iterations 2
GAMG:  Solving for p_rgh, Initial residual = 1.084192894e-05, Final residual = 8.353777059e-08, No Iterations 4
time step continuity errors : sum local = 2.720064438e-06, global = -2.000356963e-08, cumulative = -0.0362445807
--> FOAM Warning : 
    From function gaussConvectionScheme
    in file finiteVolume/convectionSchemes/gaussConvectionScheme/gaussConvectionScheme.H at line 123
    Reading "/home/ami/Desktop/virtauslaskenta/etukateenTehty/cliVersion/system/fvSchemes.divSchemes.div(phi,omega)" at line 47
    Unbounded 'Gauss' div scheme used in steady-state solver, use 'bounded Gauss' to ensure boundedness.
    To remove this warning switch off 'warnUnboundedGauss' in "/opt/openfoam231/etc/controlDict"
smoothSolver:  Solving for omega, Initial residual = 5.50033186e-07, Final residual = 1.678167415e-07, No Iterations 1
--> FOAM Warning : 
    From function gaussConvectionScheme
    in file finiteVolume/convectionSchemes/gaussConvectionScheme/gaussConvectionScheme.H at line 123
    Reading "/home/ami/Desktop/virtauslaskenta/etukateenTehty/cliVersion/system/fvSchemes.divSchemes.div(phi,k)" at line 43
    Unbounded 'Gauss' div scheme used in steady-state solver, use 'bounded Gauss' to ensure boundedness.
    To remove this warning switch off 'warnUnboundedGauss' in "/opt/openfoam231/etc/controlDict"
smoothSolver:  Solving for k, Initial residual = 5.803215678e-06, Final residual = 5.06493734e-07, No Iterations 2
ExecutionTime = 27.71 s  ClockTime = 30 s

Time = 159

smoothSolver:  Solving for Ux, Initial residual = 1.180029255e-06, Final residual = 3.919913609e-07, No Iterations 1
smoothSolver:  Solving for Uy, Initial residual = 5.457853685e-07, Final residual = 1.746751952e-07, No Iterations 1
smoothSolver:  Solving for Uz, Initial residual = 3.246039057e-06, Final residual = 9.971611053e-07, No Iterations 1
smoothSolver:  Solving for T, Initial residual = 0.00109930082, Final residual = 9.255707471e-05, No Iterations 2
GAMG:  Solving for p_rgh, Initial residual = 9.807593585e-06, Final residual = 7.076493039e-08, No Iterations 4
time step continuity errors : sum local = 2.30416987e-06, global = -3.662373704e-09, cumulative = -0.03624458436
--> FOAM Warning : 
    From function gaussConvectionScheme
    in file finiteVolume/convectionSchemes/gaussConvectionScheme/gaussConvectionScheme.H at line 123
    Reading "/home/ami/Desktop/virtauslaskenta/etukateenTehty/cliVersion/system/fvSchemes.divSchemes.div(phi,omega)" at line 47
    Unbounded 'Gauss' div scheme used in steady-state solver, use 'bounded Gauss' to ensure boundedness.
    To remove this warning switch off 'warnUnboundedGauss' in "/opt/openfoam231/etc/controlDict"
smoothSolver:  Solving for omega, Initial residual = 5.008858318e-07, Final residual = 1.535430929e-07, No Iterations 1
--> FOAM Warning : 
    From function gaussConvectionScheme
    in file finiteVolume/convectionSchemes/gaussConvectionScheme/gaussConvectionScheme.H at line 123
    Reading "/home/ami/Desktop/virtauslaskenta/etukateenTehty/cliVersion/system/fvSchemes.divSchemes.div(phi,k)" at line 43
    Unbounded 'Gauss' div scheme used in steady-state solver, use 'bounded Gauss' to ensure boundedness.
    To remove this warning switch off 'warnUnboundedGauss' in "/opt/openfoam231/etc/controlDict"
smoothSolver:  Solving for k, Initial residual = 5.191743096e-06, Final residual = 4.537651767e-07, No Iterations 2
ExecutionTime = 27.88 s  ClockTime = 30 s

Time = 160

smoothSolver:  Solving for Ux, Initial residual = 1.07777934e-06, Final residual = 3.585823209e-07, No Iterations 1
smoothSolver:  Solving for Uy, Initial residual = 4.975237164e-07, Final residual = 1.589601849e-07, No Iterations 1
smoothSolver:  Solving for Uz, Initial residual = 3.07204806e-06, Final residual = 9.606928005e-07, No Iterations 1
smoothSolver:  Solving for T, Initial residual = 0.001028322238, Final residual = 8.426814191e-05, No Iterations 2
GAMG:  Solving for p_rgh, Initial residual = 8.895478208e-06, Final residual = 6.547483412e-08, No Iterations 4
time step continuity errors : sum local = 2.131920171e-06, global = -8.061303267e-09, cumulative = -0.03624459242
--> FOAM Warning : 
    From function gaussConvectionScheme
    in file finiteVolume/convectionSchemes/gaussConvectionScheme/gaussConvectionScheme.H at line 123
    Reading "/home/ami/Desktop/virtauslaskenta/etukateenTehty/cliVersion/system/fvSchemes.divSchemes.div(phi,omega)" at line 47
    Unbounded 'Gauss' div scheme used in steady-state solver, use 'bounded Gauss' to ensure boundedness.
    To remove this warning switch off 'warnUnboundedGauss' in "/opt/openfoam231/etc/controlDict"
smoothSolver:  Solving for omega, Initial residual = 4.566247405e-07, Final residual = 1.406797443e-07, No Iterations 1
--> FOAM Warning : 
    From function gaussConvectionScheme
    in file finiteVolume/convectionSchemes/gaussConvectionScheme/gaussConvectionScheme.H at line 123
    Reading "/home/ami/Desktop/virtauslaskenta/etukateenTehty/cliVersion/system/fvSchemes.divSchemes.div(phi,k)" at line 43
    Unbounded 'Gauss' div scheme used in steady-state solver, use 'bounded Gauss' to ensure boundedness.
    To remove this warning switch off 'warnUnboundedGauss' in "/opt/openfoam231/etc/controlDict"
smoothSolver:  Solving for k, Initial residual = 4.646391836e-06, Final residual = 4.063089969e-07, No Iterations 2
ExecutionTime = 28.05 s  ClockTime = 30 s

Time = 161

smoothSolver:  Solving for Ux, Initial residual = 9.847739231e-07, Final residual = 3.280340902e-07, No Iterations 1
smoothSolver:  Solving for Uy, Initial residual = 4.555390644e-07, Final residual = 1.453791493e-07, No Iterations 1
smoothSolver:  Solving for Uz, Initial residual = 2.799462221e-06, Final residual = 8.859729812e-07, No Iterations 1
smoothSolver:  Solving for T, Initial residual = 0.0009610016032, Final residual = 7.814710982e-05, No Iterations 2
GAMG:  Solving for p_rgh, Initial residual = 8.136153325e-06, Final residual = 6.202344189e-08, No Iterations 4
time step continuity errors : sum local = 2.019540286e-06, global = -2.883302475e-08, cumulative = -0.03624462126
--> FOAM Warning : 
    From function gaussConvectionScheme
    in file finiteVolume/convectionSchemes/gaussConvectionScheme/gaussConvectionScheme.H at line 123
    Reading "/home/ami/Desktop/virtauslaskenta/etukateenTehty/cliVersion/system/fvSchemes.divSchemes.div(phi,omega)" at line 47
    Unbounded 'Gauss' div scheme used in steady-state solver, use 'bounded Gauss' to ensure boundedness.
    To remove this warning switch off 'warnUnboundedGauss' in "/opt/openfoam231/etc/controlDict"
smoothSolver:  Solving for omega, Initial residual = 4.167207661e-07, Final residual = 1.290478977e-07, No Iterations 1
--> FOAM Warning : 
    From function gaussConvectionScheme
    in file finiteVolume/convectionSchemes/gaussConvectionScheme/gaussConvectionScheme.H at line 123
    Reading "/home/ami/Desktop/virtauslaskenta/etukateenTehty/cliVersion/system/fvSchemes.divSchemes.div(phi,k)" at line 43
    Unbounded 'Gauss' div scheme used in steady-state solver, use 'bounded Gauss' to ensure boundedness.
    To remove this warning switch off 'warnUnboundedGauss' in "/opt/openfoam231/etc/controlDict"
smoothSolver:  Solving for k, Initial residual = 4.160205252e-06, Final residual = 3.635919123e-07, No Iterations 2
ExecutionTime = 28.23 s  ClockTime = 30 s


SIMPLE solution converged in 161 iterations

End

Finalising parallel run
